data_image0
_chemical_formula_structural       Mn4096O8192
_chemical_formula_sum              "Mn4096 O8192"
_cell_length_a       64.57382727830041
_cell_length_b       45.66059115565508
_cell_length_c       45.66059115565507
_cell_angle_alpha    90.0
_cell_angle_beta     90.0
_cell_angle_gamma    90.0

_space_group_name_H-M_alt    "P 1"
_space_group_IT_number       1

loop_
  _space_group_symop_operation_xyz
  'x, y, z'

loop_
  _atom_site_type_symbol
  _atom_site_label
  _atom_site_symmetry_multiplicity
  _atom_site_fract_x
  _atom_site_fract_y
  _atom_site_fract_z
  _atom_site_occupancy
  Mn  Mn1       1.0  0.0  0.0  0.06250000000000006  1.0000
  Mn  Mn2       1.0  0.0  0.12499999999999997  0.06250000000000006  1.0000
  Mn  Mn3       1.0  0.0  0.24999999999999994  0.06250000000000006  1.0000
  Mn  Mn4       1.0  0.0  0.37499999999999994  0.06250000000000006  1.0000
  Mn  Mn5       1.0  0.0  0.5625  0.06250000000000006  1.0000
  Mn  Mn6       1.0  0.0  0.6875  0.06250000000000006  1.0000
  Mn  Mn7       1.0  0.0  0.8124999999999998  0.06250000000000006  1.0000
  Mn  Mn8       1.0  0.0  0.9374999999999998  0.06250000000000006  1.0000
  Mn  Mn9       1.0  0.03125  0.031249999999999993  0.03125000000000005  1.0000
  Mn  Mn10      1.0  0.03125  0.09374999999999999  0.03125000000000005  1.0000
  Mn  Mn11      1.0  0.03125  0.15625  0.03125000000000005  1.0000
  Mn  Mn12      1.0  0.03125  0.21874999999999994  0.03125000000000005  1.0000
  Mn  Mn13      1.0  0.03125  0.28125  0.03125000000000005  1.0000
  Mn  Mn14      1.0  0.03125  0.34375  0.03125000000000005  1.0000
  Mn  Mn15      1.0  0.03125  0.4062499999999999  0.03125000000000005  1.0000
  Mn  Mn16      1.0  0.03125  0.4687499999999999  0.03125000000000005  1.0000
  Mn  Mn17      1.0  0.0  0.0  0.12500000000000006  1.0000
  Mn  Mn18      1.0  0.0  0.12499999999999997  0.12500000000000006  1.0000
  Mn  Mn19      1.0  0.0  0.24999999999999994  0.12500000000000006  1.0000
  Mn  Mn20      1.0  0.0  0.37499999999999994  0.12500000000000006  1.0000
  Mn  Mn21      1.0  0.0  0.5625  0.12500000000000006  1.0000
  Mn  Mn22      1.0  0.0  0.6875  0.12500000000000006  1.0000
  Mn  Mn23      1.0  0.0  0.8124999999999998  0.12500000000000006  1.0000
  Mn  Mn24      1.0  0.0  0.9374999999999998  0.12500000000000006  1.0000
  Mn  Mn25      1.0  0.03125  0.53125  0.09375000000000004  1.0000
  Mn  Mn26      1.0  0.03125  0.59375  0.09375000000000004  1.0000
  Mn  Mn27      1.0  0.03125  0.65625  0.09375000000000004  1.0000
  Mn  Mn28      1.0  0.03125  0.7187499999999999  0.09375000000000004  1.0000
  Mn  Mn29      1.0  0.03125  0.7812499999999999  0.09375000000000004  1.0000
  Mn  Mn30      1.0  0.03125  0.8437499999999998  0.09375000000000004  1.0000
  Mn  Mn31      1.0  0.03125  0.9062499999999998  0.09375000000000004  1.0000
  Mn  Mn32      1.0  0.03125  0.9687499999999998  0.09375000000000004  1.0000
  Mn  Mn33      1.0  0.0625  0.062499999999999986  0.06250000000000006  1.0000
  Mn  Mn34      1.0  0.0625  0.18749999999999997  0.06250000000000006  1.0000
  Mn  Mn35      1.0  0.0625  0.3125  0.06250000000000006  1.0000
  Mn  Mn36      1.0  0.0625  0.4374999999999999  0.06250000000000006  1.0000
  Mn  Mn37      1.0  0.0625  0.4999999999999999  0.06250000000000006  1.0000
  Mn  Mn38      1.0  0.0625  0.625  0.06250000000000006  1.0000
  Mn  Mn39      1.0  0.0625  0.7499999999999999  0.06250000000000006  1.0000
  Mn  Mn40      1.0  0.0625  0.8749999999999998  0.06250000000000006  1.0000
  Mn  Mn41      1.0  0.09375  0.53125  0.03125000000000005  1.0000
  Mn  Mn42      1.0  0.09375  0.59375  0.03125000000000005  1.0000
  Mn  Mn43      1.0  0.09375  0.65625  0.03125000000000005  1.0000
  Mn  Mn44      1.0  0.09375  0.7187499999999999  0.03125000000000005  1.0000
  Mn  Mn45      1.0  0.09375  0.7812499999999999  0.03125000000000005  1.0000
  Mn  Mn46      1.0  0.09375  0.8437499999999998  0.03125000000000005  1.0000
  Mn  Mn47      1.0  0.09375  0.9062499999999998  0.03125000000000005  1.0000
  Mn  Mn48      1.0  0.09375  0.9687499999999998  0.03125000000000005  1.0000
  Mn  Mn49      1.0  0.0  0.0  0.18750000000000006  1.0000
  Mn  Mn50      1.0  0.0  0.12499999999999997  0.18750000000000006  1.0000
  Mn  Mn51      1.0  0.0  0.24999999999999994  0.18750000000000006  1.0000
  Mn  Mn52      1.0  0.0  0.37499999999999994  0.18750000000000006  1.0000
  Mn  Mn53      1.0  0.0  0.5625  0.18750000000000006  1.0000
  Mn  Mn54      1.0  0.0  0.6875  0.18750000000000006  1.0000
  Mn  Mn55      1.0  0.0  0.8124999999999998  0.18750000000000006  1.0000
  Mn  Mn56      1.0  0.0  0.9374999999999998  0.18750000000000006  1.0000
  Mn  Mn57      1.0  0.03125  0.031249999999999993  0.15625000000000003  1.0000
  Mn  Mn58      1.0  0.03125  0.09374999999999999  0.15625000000000003  1.0000
  Mn  Mn59      1.0  0.03125  0.15625  0.15625000000000003  1.0000
  Mn  Mn60      1.0  0.03125  0.21874999999999994  0.15625000000000003  1.0000
  Mn  Mn61      1.0  0.03125  0.28125  0.15625000000000003  1.0000
  Mn  Mn62      1.0  0.03125  0.34375  0.15625000000000003  1.0000
  Mn  Mn63      1.0  0.03125  0.4062499999999999  0.15625000000000003  1.0000
  Mn  Mn64      1.0  0.03125  0.4687499999999999  0.15625000000000003  1.0000
  Mn  Mn65      1.0  0.0625  0.062499999999999986  0.12500000000000006  1.0000
  Mn  Mn66      1.0  0.0625  0.18749999999999997  0.12500000000000006  1.0000
  Mn  Mn67      1.0  0.0625  0.3125  0.12500000000000006  1.0000
  Mn  Mn68      1.0  0.0625  0.4374999999999999  0.12500000000000006  1.0000
  Mn  Mn69      1.0  0.0625  0.4999999999999999  0.12500000000000006  1.0000
  Mn  Mn70      1.0  0.0625  0.625  0.12500000000000006  1.0000
  Mn  Mn71      1.0  0.0625  0.7499999999999999  0.12500000000000006  1.0000
  Mn  Mn72      1.0  0.0625  0.8749999999999998  0.12500000000000006  1.0000
  Mn  Mn73      1.0  0.09375  0.031249999999999993  0.09375000000000004  1.0000
  Mn  Mn74      1.0  0.09375  0.09374999999999999  0.09375000000000004  1.0000
  Mn  Mn75      1.0  0.09375  0.15625  0.09375000000000004  1.0000
  Mn  Mn76      1.0  0.09375  0.21874999999999994  0.09375000000000004  1.0000
  Mn  Mn77      1.0  0.09375  0.28125  0.09375000000000004  1.0000
  Mn  Mn78      1.0  0.09375  0.34375  0.09375000000000004  1.0000
  Mn  Mn79      1.0  0.09375  0.4062499999999999  0.09375000000000004  1.0000
  Mn  Mn80      1.0  0.09375  0.4687499999999999  0.09375000000000004  1.0000
  Mn  Mn81      1.0  0.125  0.0  0.06250000000000006  1.0000
  Mn  Mn82      1.0  0.125  0.12499999999999997  0.06250000000000006  1.0000
  Mn  Mn83      1.0  0.125  0.24999999999999994  0.06250000000000006  1.0000
  Mn  Mn84      1.0  0.125  0.37499999999999994  0.06250000000000006  1.0000
  Mn  Mn85      1.0  0.125  0.5625  0.06250000000000006  1.0000
  Mn  Mn86      1.0  0.125  0.6875  0.06250000000000006  1.0000
  Mn  Mn87      1.0  0.125  0.8124999999999998  0.06250000000000006  1.0000
  Mn  Mn88      1.0  0.125  0.9374999999999998  0.06250000000000006  1.0000
  Mn  Mn89      1.0  0.15625000000000006  0.031249999999999993  0.03125000000000005  1.0000
  Mn  Mn90      1.0  0.15625000000000006  0.09374999999999999  0.03125000000000005  1.0000
  Mn  Mn91      1.0  0.15625000000000006  0.15625  0.03125000000000005  1.0000
  Mn  Mn92      1.0  0.15625000000000006  0.21874999999999994  0.03125000000000005  1.0000
  Mn  Mn93      1.0  0.15625000000000006  0.28125  0.03125000000000005  1.0000
  Mn  Mn94      1.0  0.15625000000000006  0.34375  0.03125000000000005  1.0000
  Mn  Mn95      1.0  0.15625000000000006  0.4062499999999999  0.03125000000000005  1.0000
  Mn  Mn96      1.0  0.15625000000000006  0.4687499999999999  0.03125000000000005  1.0000
  Mn  Mn97      1.0  0.0  0.0  0.25  1.0000
  Mn  Mn98      1.0  0.0  0.12499999999999997  0.25  1.0000
  Mn  Mn99      1.0  0.0  0.24999999999999994  0.25  1.0000
  Mn  Mn100     1.0  0.0  0.37499999999999994  0.25  1.0000
  Mn  Mn101     1.0  0.0  0.5625  0.25  1.0000
  Mn  Mn102     1.0  0.0  0.6875  0.25  1.0000
  Mn  Mn103     1.0  0.0  0.8124999999999998  0.25  1.0000
  Mn  Mn104     1.0  0.0  0.9374999999999998  0.25  1.0000
  Mn  Mn105     1.0  0.03125  0.53125  0.21875000000000006  1.0000
  Mn  Mn106     1.0  0.03125  0.59375  0.21875000000000006  1.0000
  Mn  Mn107     1.0  0.03125  0.65625  0.21875000000000006  1.0000
  Mn  Mn108     1.0  0.03125  0.7187499999999999  0.21875000000000006  1.0000
  Mn  Mn109     1.0  0.03125  0.7812499999999999  0.21875000000000006  1.0000
  Mn  Mn110     1.0  0.03125  0.8437499999999998  0.21875000000000006  1.0000
  Mn  Mn111     1.0  0.03125  0.9062499999999998  0.21875000000000006  1.0000
  Mn  Mn112     1.0  0.03125  0.9687499999999998  0.21875000000000006  1.0000
  Mn  Mn113     1.0  0.0625  0.062499999999999986  0.18750000000000006  1.0000
  Mn  Mn114     1.0  0.0625  0.18749999999999997  0.18750000000000006  1.0000
  Mn  Mn115     1.0  0.0625  0.3125  0.18750000000000006  1.0000
  Mn  Mn116     1.0  0.0625  0.4374999999999999  0.18750000000000006  1.0000
  Mn  Mn117     1.0  0.0625  0.4999999999999999  0.18750000000000006  1.0000
  Mn  Mn118     1.0  0.0625  0.625  0.18750000000000006  1.0000
  Mn  Mn119     1.0  0.0625  0.7499999999999999  0.18750000000000006  1.0000
  Mn  Mn120     1.0  0.0625  0.8749999999999998  0.18750000000000006  1.0000
  Mn  Mn121     1.0  0.09375  0.53125  0.15625000000000003  1.0000
  Mn  Mn122     1.0  0.09375  0.59375  0.15625000000000003  1.0000
  Mn  Mn123     1.0  0.09375  0.65625  0.15625000000000003  1.0000
  Mn  Mn124     1.0  0.09375  0.7187499999999999  0.15625000000000003  1.0000
  Mn  Mn125     1.0  0.09375  0.7812499999999999  0.15625000000000003  1.0000
  Mn  Mn126     1.0  0.09375  0.8437499999999998  0.15625000000000003  1.0000
  Mn  Mn127     1.0  0.09375  0.9062499999999998  0.15625000000000003  1.0000
  Mn  Mn128     1.0  0.09375  0.9687499999999998  0.15625000000000003  1.0000
  Mn  Mn129     1.0  0.125  0.0  0.12500000000000006  1.0000
  Mn  Mn130     1.0  0.125  0.12499999999999997  0.12500000000000006  1.0000
  Mn  Mn131     1.0  0.125  0.24999999999999994  0.12500000000000006  1.0000
  Mn  Mn132     1.0  0.125  0.37499999999999994  0.12500000000000006  1.0000
  Mn  Mn133     1.0  0.125  0.5625  0.12500000000000006  1.0000
  Mn  Mn134     1.0  0.125  0.6875  0.12500000000000006  1.0000
  Mn  Mn135     1.0  0.125  0.8124999999999998  0.12500000000000006  1.0000
  Mn  Mn136     1.0  0.125  0.9374999999999998  0.12500000000000006  1.0000
  Mn  Mn137     1.0  0.15625000000000006  0.53125  0.09375000000000004  1.0000
  Mn  Mn138     1.0  0.15625000000000006  0.59375  0.09375000000000004  1.0000
  Mn  Mn139     1.0  0.15625000000000006  0.65625  0.09375000000000004  1.0000
  Mn  Mn140     1.0  0.15625000000000006  0.7187499999999999  0.09375000000000004  1.0000
  Mn  Mn141     1.0  0.15625000000000006  0.7812499999999999  0.09375000000000004  1.0000
  Mn  Mn142     1.0  0.15625000000000006  0.8437499999999998  0.09375000000000004  1.0000
  Mn  Mn143     1.0  0.15625000000000006  0.9062499999999998  0.09375000000000004  1.0000
  Mn  Mn144     1.0  0.15625000000000006  0.9687499999999998  0.09375000000000004  1.0000
  Mn  Mn145     1.0  0.1875  0.062499999999999986  0.06250000000000006  1.0000
  Mn  Mn146     1.0  0.1875  0.18749999999999997  0.06250000000000006  1.0000
  Mn  Mn147     1.0  0.1875  0.3125  0.06250000000000006  1.0000
  Mn  Mn148     1.0  0.1875  0.4374999999999999  0.06250000000000006  1.0000
  Mn  Mn149     1.0  0.1875  0.4999999999999999  0.06250000000000006  1.0000
  Mn  Mn150     1.0  0.1875  0.625  0.06250000000000006  1.0000
  Mn  Mn151     1.0  0.1875  0.7499999999999999  0.06250000000000006  1.0000
  Mn  Mn152     1.0  0.1875  0.8749999999999998  0.06250000000000006  1.0000
  Mn  Mn153     1.0  0.21875  0.53125  0.03125000000000005  1.0000
  Mn  Mn154     1.0  0.21875  0.59375  0.03125000000000005  1.0000
  Mn  Mn155     1.0  0.21875  0.65625  0.03125000000000005  1.0000
  Mn  Mn156     1.0  0.21875  0.7187499999999999  0.03125000000000005  1.0000
  Mn  Mn157     1.0  0.21875  0.7812499999999999  0.03125000000000005  1.0000
  Mn  Mn158     1.0  0.21875  0.8437499999999998  0.03125000000000005  1.0000
  Mn  Mn159     1.0  0.21875  0.9062499999999998  0.03125000000000005  1.0000
  Mn  Mn160     1.0  0.21875  0.9687499999999998  0.03125000000000005  1.0000
  Mn  Mn161     1.0  0.0  0.0  0.31250000000000006  1.0000
  Mn  Mn162     1.0  0.0  0.12499999999999997  0.31250000000000006  1.0000
  Mn  Mn163     1.0  0.0  0.24999999999999994  0.31250000000000006  1.0000
  Mn  Mn164     1.0  0.0  0.37499999999999994  0.31250000000000006  1.0000
  Mn  Mn165     1.0  0.0  0.5625  0.31250000000000006  1.0000
  Mn  Mn166     1.0  0.0  0.6875  0.31250000000000006  1.0000
  Mn  Mn167     1.0  0.0  0.8124999999999998  0.31250000000000006  1.0000
  Mn  Mn168     1.0  0.0  0.9374999999999998  0.31250000000000006  1.0000
  Mn  Mn169     1.0  0.03125  0.031249999999999993  0.2812499999999999  1.0000
  Mn  Mn170     1.0  0.03125  0.09374999999999999  0.2812499999999999  1.0000
  Mn  Mn171     1.0  0.03125  0.15625  0.2812499999999999  1.0000
  Mn  Mn172     1.0  0.03125  0.21874999999999994  0.2812499999999999  1.0000
  Mn  Mn173     1.0  0.03125  0.28125  0.2812499999999999  1.0000
  Mn  Mn174     1.0  0.03125  0.34375  0.2812499999999999  1.0000
  Mn  Mn175     1.0  0.03125  0.4062499999999999  0.2812499999999999  1.0000
  Mn  Mn176     1.0  0.03125  0.4687499999999999  0.2812499999999999  1.0000
  Mn  Mn177     1.0  0.0625  0.062499999999999986  0.25  1.0000
  Mn  Mn178     1.0  0.0625  0.18749999999999997  0.25  1.0000
  Mn  Mn179     1.0  0.0625  0.3125  0.25  1.0000
  Mn  Mn180     1.0  0.0625  0.4374999999999999  0.25  1.0000
  Mn  Mn181     1.0  0.0625  0.4999999999999999  0.25  1.0000
  Mn  Mn182     1.0  0.0625  0.625  0.25  1.0000
  Mn  Mn183     1.0  0.0625  0.7499999999999999  0.25  1.0000
  Mn  Mn184     1.0  0.0625  0.8749999999999998  0.25  1.0000
  Mn  Mn185     1.0  0.09375  0.031249999999999993  0.21875000000000006  1.0000
  Mn  Mn186     1.0  0.09375  0.09374999999999999  0.21875000000000006  1.0000
  Mn  Mn187     1.0  0.09375  0.15625  0.21875000000000006  1.0000
  Mn  Mn188     1.0  0.09375  0.21874999999999994  0.21875000000000006  1.0000
  Mn  Mn189     1.0  0.09375  0.28125  0.21875000000000006  1.0000
  Mn  Mn190     1.0  0.09375  0.34375  0.21875000000000006  1.0000
  Mn  Mn191     1.0  0.09375  0.4062499999999999  0.21875000000000006  1.0000
  Mn  Mn192     1.0  0.09375  0.4687499999999999  0.21875000000000006  1.0000
  Mn  Mn193     1.0  0.125  0.0  0.18750000000000006  1.0000
  Mn  Mn194     1.0  0.125  0.12499999999999997  0.18750000000000006  1.0000
  Mn  Mn195     1.0  0.125  0.24999999999999994  0.18750000000000006  1.0000
  Mn  Mn196     1.0  0.125  0.37499999999999994  0.18750000000000006  1.0000
  Mn  Mn197     1.0  0.125  0.5625  0.18750000000000006  1.0000
  Mn  Mn198     1.0  0.125  0.6875  0.18750000000000006  1.0000
  Mn  Mn199     1.0  0.125  0.8124999999999998  0.18750000000000006  1.0000
  Mn  Mn200     1.0  0.125  0.9374999999999998  0.18750000000000006  1.0000
  Mn  Mn201     1.0  0.15625000000000006  0.031249999999999993  0.15625000000000003  1.0000
  Mn  Mn202     1.0  0.15625000000000006  0.09374999999999999  0.15625000000000003  1.0000
  Mn  Mn203     1.0  0.15625000000000006  0.15625  0.15625000000000003  1.0000
  Mn  Mn204     1.0  0.15625000000000006  0.21874999999999994  0.15625000000000003  1.0000
  Mn  Mn205     1.0  0.15625000000000006  0.28125  0.15625000000000003  1.0000
  Mn  Mn206     1.0  0.15625000000000006  0.34375  0.15625000000000003  1.0000
  Mn  Mn207     1.0  0.15625000000000006  0.4062499999999999  0.15625000000000003  1.0000
  Mn  Mn208     1.0  0.15625000000000006  0.4687499999999999  0.15625000000000003  1.0000
  Mn  Mn209     1.0  0.1875  0.062499999999999986  0.12500000000000006  1.0000
  Mn  Mn210     1.0  0.1875  0.18749999999999997  0.12500000000000006  1.0000
  Mn  Mn211     1.0  0.1875  0.3125  0.12500000000000006  1.0000
  Mn  Mn212     1.0  0.1875  0.4374999999999999  0.12500000000000006  1.0000
  Mn  Mn213     1.0  0.1875  0.4999999999999999  0.12500000000000006  1.0000
  Mn  Mn214     1.0  0.1875  0.625  0.12500000000000006  1.0000
  Mn  Mn215     1.0  0.1875  0.7499999999999999  0.12500000000000006  1.0000
  Mn  Mn216     1.0  0.1875  0.8749999999999998  0.12500000000000006  1.0000
  Mn  Mn217     1.0  0.21875  0.031249999999999993  0.09375000000000004  1.0000
  Mn  Mn218     1.0  0.21875  0.09374999999999999  0.09375000000000004  1.0000
  Mn  Mn219     1.0  0.21875  0.15625  0.09375000000000004  1.0000
  Mn  Mn220     1.0  0.21875  0.21874999999999994  0.09375000000000004  1.0000
  Mn  Mn221     1.0  0.21875  0.28125  0.09375000000000004  1.0000
  Mn  Mn222     1.0  0.21875  0.34375  0.09375000000000004  1.0000
  Mn  Mn223     1.0  0.21875  0.4062499999999999  0.09375000000000004  1.0000
  Mn  Mn224     1.0  0.21875  0.4687499999999999  0.09375000000000004  1.0000
  Mn  Mn225     1.0  0.25  0.0  0.06250000000000006  1.0000
  Mn  Mn226     1.0  0.25  0.12499999999999997  0.06250000000000006  1.0000
  Mn  Mn227     1.0  0.25  0.24999999999999994  0.06250000000000006  1.0000
  Mn  Mn228     1.0  0.25  0.37499999999999994  0.06250000000000006  1.0000
  Mn  Mn229     1.0  0.25  0.5625  0.06250000000000006  1.0000
  Mn  Mn230     1.0  0.25  0.6875  0.06250000000000006  1.0000
  Mn  Mn231     1.0  0.25  0.8124999999999998  0.06250000000000006  1.0000
  Mn  Mn232     1.0  0.25  0.9374999999999998  0.06250000000000006  1.0000
  Mn  Mn233     1.0  0.28125  0.031249999999999993  0.03125000000000005  1.0000
  Mn  Mn234     1.0  0.28125  0.09374999999999999  0.03125000000000005  1.0000
  Mn  Mn235     1.0  0.28125  0.15625  0.03125000000000005  1.0000
  Mn  Mn236     1.0  0.28125  0.21874999999999994  0.03125000000000005  1.0000
  Mn  Mn237     1.0  0.28125  0.28125  0.03125000000000005  1.0000
  Mn  Mn238     1.0  0.28125  0.34375  0.03125000000000005  1.0000
  Mn  Mn239     1.0  0.28125  0.4062499999999999  0.03125000000000005  1.0000
  Mn  Mn240     1.0  0.28125  0.4687499999999999  0.03125000000000005  1.0000
  Mn  Mn241     1.0  0.0  0.0  0.37499999999999994  1.0000
  Mn  Mn242     1.0  0.0  0.12499999999999997  0.37499999999999994  1.0000
  Mn  Mn243     1.0  0.0  0.24999999999999994  0.37499999999999994  1.0000
  Mn  Mn244     1.0  0.0  0.37499999999999994  0.37499999999999994  1.0000
  Mn  Mn245     1.0  0.0  0.5625  0.37499999999999994  1.0000
  Mn  Mn246     1.0  0.0  0.6875  0.37499999999999994  1.0000
  Mn  Mn247     1.0  0.0  0.8124999999999998  0.37499999999999994  1.0000
  Mn  Mn248     1.0  0.0  0.9374999999999998  0.37499999999999994  1.0000
  Mn  Mn249     1.0  0.03125  0.53125  0.34375000000000006  1.0000
  Mn  Mn250     1.0  0.03125  0.59375  0.34375000000000006  1.0000
  Mn  Mn251     1.0  0.03125  0.65625  0.34375000000000006  1.0000
  Mn  Mn252     1.0  0.03125  0.7187499999999999  0.34375000000000006  1.0000
  Mn  Mn253     1.0  0.03125  0.7812499999999999  0.34375000000000006  1.0000
  Mn  Mn254     1.0  0.03125  0.8437499999999998  0.34375000000000006  1.0000
  Mn  Mn255     1.0  0.03125  0.9062499999999998  0.34375000000000006  1.0000
  Mn  Mn256     1.0  0.03125  0.9687499999999998  0.34375000000000006  1.0000
  Mn  Mn257     1.0  0.0625  0.062499999999999986  0.31250000000000006  1.0000
  Mn  Mn258     1.0  0.0625  0.18749999999999997  0.31250000000000006  1.0000
  Mn  Mn259     1.0  0.0625  0.3125  0.31250000000000006  1.0000
  Mn  Mn260     1.0  0.0625  0.4374999999999999  0.31250000000000006  1.0000
  Mn  Mn261     1.0  0.0625  0.4999999999999999  0.31250000000000006  1.0000
  Mn  Mn262     1.0  0.0625  0.625  0.31250000000000006  1.0000
  Mn  Mn263     1.0  0.0625  0.7499999999999999  0.31250000000000006  1.0000
  Mn  Mn264     1.0  0.0625  0.8749999999999998  0.31250000000000006  1.0000
  Mn  Mn265     1.0  0.09375  0.53125  0.2812499999999999  1.0000
  Mn  Mn266     1.0  0.09375  0.59375  0.2812499999999999  1.0000
  Mn  Mn267     1.0  0.09375  0.65625  0.2812499999999999  1.0000
  Mn  Mn268     1.0  0.09375  0.7187499999999999  0.2812499999999999  1.0000
  Mn  Mn269     1.0  0.09375  0.7812499999999999  0.2812499999999999  1.0000
  Mn  Mn270     1.0  0.09375  0.8437499999999998  0.2812499999999999  1.0000
  Mn  Mn271     1.0  0.09375  0.9062499999999998  0.2812499999999999  1.0000
  Mn  Mn272     1.0  0.09375  0.9687499999999998  0.2812499999999999  1.0000
  Mn  Mn273     1.0  0.125  0.0  0.25  1.0000
  Mn  Mn274     1.0  0.125  0.12499999999999997  0.25  1.0000
  Mn  Mn275     1.0  0.125  0.24999999999999994  0.25  1.0000
  Mn  Mn276     1.0  0.125  0.37499999999999994  0.25  1.0000
  Mn  Mn277     1.0  0.125  0.5625  0.25  1.0000
  Mn  Mn278     1.0  0.125  0.6875  0.25  1.0000
  Mn  Mn279     1.0  0.125  0.8124999999999998  0.25  1.0000
  Mn  Mn280     1.0  0.125  0.9374999999999998  0.25  1.0000
  Mn  Mn281     1.0  0.15625000000000006  0.53125  0.21875000000000006  1.0000
  Mn  Mn282     1.0  0.15625000000000006  0.59375  0.21875000000000006  1.0000
  Mn  Mn283     1.0  0.15625000000000006  0.65625  0.21875000000000006  1.0000
  Mn  Mn284     1.0  0.15625000000000006  0.7187499999999999  0.21875000000000006  1.0000
  Mn  Mn285     1.0  0.15625000000000006  0.7812499999999999  0.21875000000000006  1.0000
  Mn  Mn286     1.0  0.15625000000000006  0.8437499999999998  0.21875000000000006  1.0000
  Mn  Mn287     1.0  0.15625000000000006  0.9062499999999998  0.21875000000000006  1.0000
  Mn  Mn288     1.0  0.15625000000000006  0.9687499999999998  0.21875000000000006  1.0000
  Mn  Mn289     1.0  0.1875  0.062499999999999986  0.18750000000000006  1.0000
  Mn  Mn290     1.0  0.1875  0.18749999999999997  0.18750000000000006  1.0000
  Mn  Mn291     1.0  0.1875  0.3125  0.18750000000000006  1.0000
  Mn  Mn292     1.0  0.1875  0.4374999999999999  0.18750000000000006  1.0000
  Mn  Mn293     1.0  0.1875  0.4999999999999999  0.18750000000000006  1.0000
  Mn  Mn294     1.0  0.1875  0.625  0.18750000000000006  1.0000
  Mn  Mn295     1.0  0.1875  0.7499999999999999  0.18750000000000006  1.0000
  Mn  Mn296     1.0  0.1875  0.8749999999999998  0.18750000000000006  1.0000
  Mn  Mn297     1.0  0.21875  0.53125  0.15625000000000003  1.0000
  Mn  Mn298     1.0  0.21875  0.59375  0.15625000000000003  1.0000
  Mn  Mn299     1.0  0.21875  0.65625  0.15625000000000003  1.0000
  Mn  Mn300     1.0  0.21875  0.7187499999999999  0.15625000000000003  1.0000
  Mn  Mn301     1.0  0.21875  0.7812499999999999  0.15625000000000003  1.0000
  Mn  Mn302     1.0  0.21875  0.8437499999999998  0.15625000000000003  1.0000
  Mn  Mn303     1.0  0.21875  0.9062499999999998  0.15625000000000003  1.0000
  Mn  Mn304     1.0  0.21875  0.9687499999999998  0.15625000000000003  1.0000
  Mn  Mn305     1.0  0.25  0.0  0.12500000000000006  1.0000
  Mn  Mn306     1.0  0.25  0.12499999999999997  0.12500000000000006  1.0000
  Mn  Mn307     1.0  0.25  0.24999999999999994  0.12500000000000006  1.0000
  Mn  Mn308     1.0  0.25  0.37499999999999994  0.12500000000000006  1.0000
  Mn  Mn309     1.0  0.25  0.5625  0.12500000000000006  1.0000
  Mn  Mn310     1.0  0.25  0.6875  0.12500000000000006  1.0000
  Mn  Mn311     1.0  0.25  0.8124999999999998  0.12500000000000006  1.0000
  Mn  Mn312     1.0  0.25  0.9374999999999998  0.12500000000000006  1.0000
  Mn  Mn313     1.0  0.28125  0.53125  0.09375000000000004  1.0000
  Mn  Mn314     1.0  0.28125  0.59375  0.09375000000000004  1.0000
  Mn  Mn315     1.0  0.28125  0.65625  0.09375000000000004  1.0000
  Mn  Mn316     1.0  0.28125  0.7187499999999999  0.09375000000000004  1.0000
  Mn  Mn317     1.0  0.28125  0.7812499999999999  0.09375000000000004  1.0000
  Mn  Mn318     1.0  0.28125  0.8437499999999998  0.09375000000000004  1.0000
  Mn  Mn319     1.0  0.28125  0.9062499999999998  0.09375000000000004  1.0000
  Mn  Mn320     1.0  0.28125  0.9687499999999998  0.09375000000000004  1.0000
  Mn  Mn321     1.0  0.3125000000000001  0.062499999999999986  0.06250000000000006  1.0000
  Mn  Mn322     1.0  0.3125000000000001  0.18749999999999997  0.06250000000000006  1.0000
  Mn  Mn323     1.0  0.3125000000000001  0.3125  0.06250000000000006  1.0000
  Mn  Mn324     1.0  0.3125000000000001  0.4374999999999999  0.06250000000000006  1.0000
  Mn  Mn325     1.0  0.3125000000000001  0.4999999999999999  0.06250000000000006  1.0000
  Mn  Mn326     1.0  0.3125000000000001  0.625  0.06250000000000006  1.0000
  Mn  Mn327     1.0  0.3125000000000001  0.7499999999999999  0.06250000000000006  1.0000
  Mn  Mn328     1.0  0.3125000000000001  0.8749999999999998  0.06250000000000006  1.0000
  Mn  Mn329     1.0  0.3437500000000001  0.53125  0.03125000000000005  1.0000
  Mn  Mn330     1.0  0.3437500000000001  0.59375  0.03125000000000005  1.0000
  Mn  Mn331     1.0  0.3437500000000001  0.65625  0.03125000000000005  1.0000
  Mn  Mn332     1.0  0.3437500000000001  0.7187499999999999  0.03125000000000005  1.0000
  Mn  Mn333     1.0  0.3437500000000001  0.7812499999999999  0.03125000000000005  1.0000
  Mn  Mn334     1.0  0.3437500000000001  0.8437499999999998  0.03125000000000005  1.0000
  Mn  Mn335     1.0  0.3437500000000001  0.9062499999999998  0.03125000000000005  1.0000
  Mn  Mn336     1.0  0.3437500000000001  0.9687499999999998  0.03125000000000005  1.0000
  Mn  Mn337     1.0  0.0  0.0  0.43749999999999994  1.0000
  Mn  Mn338     1.0  0.0  0.12499999999999997  0.43749999999999994  1.0000
  Mn  Mn339     1.0  0.0  0.24999999999999994  0.43749999999999994  1.0000
  Mn  Mn340     1.0  0.0  0.37499999999999994  0.43749999999999994  1.0000
  Mn  Mn341     1.0  0.0  0.5625  0.43749999999999994  1.0000
  Mn  Mn342     1.0  0.0  0.6875  0.43749999999999994  1.0000
  Mn  Mn343     1.0  0.0  0.8124999999999998  0.43749999999999994  1.0000
  Mn  Mn344     1.0  0.0  0.9374999999999998  0.43749999999999994  1.0000
  Mn  Mn345     1.0  0.03125  0.031249999999999993  0.40624999999999994  1.0000
  Mn  Mn346     1.0  0.03125  0.09374999999999999  0.40624999999999994  1.0000
  Mn  Mn347     1.0  0.03125  0.15625  0.40624999999999994  1.0000
  Mn  Mn348     1.0  0.03125  0.21874999999999994  0.40624999999999994  1.0000
  Mn  Mn349     1.0  0.03125  0.28125  0.40624999999999994  1.0000
  Mn  Mn350     1.0  0.03125  0.34375  0.40624999999999994  1.0000
  Mn  Mn351     1.0  0.03125  0.4062499999999999  0.40624999999999994  1.0000
  Mn  Mn352     1.0  0.03125  0.4687499999999999  0.40624999999999994  1.0000
  Mn  Mn353     1.0  0.0625  0.062499999999999986  0.37499999999999994  1.0000
  Mn  Mn354     1.0  0.0625  0.18749999999999997  0.37499999999999994  1.0000
  Mn  Mn355     1.0  0.0625  0.3125  0.37499999999999994  1.0000
  Mn  Mn356     1.0  0.0625  0.4374999999999999  0.37499999999999994  1.0000
  Mn  Mn357     1.0  0.0625  0.4999999999999999  0.37499999999999994  1.0000
  Mn  Mn358     1.0  0.0625  0.625  0.37499999999999994  1.0000
  Mn  Mn359     1.0  0.0625  0.7499999999999999  0.37499999999999994  1.0000
  Mn  Mn360     1.0  0.0625  0.8749999999999998  0.37499999999999994  1.0000
  Mn  Mn361     1.0  0.09375  0.031249999999999993  0.34375000000000006  1.0000
  Mn  Mn362     1.0  0.09375  0.09374999999999999  0.34375000000000006  1.0000
  Mn  Mn363     1.0  0.09375  0.15625  0.34375000000000006  1.0000
  Mn  Mn364     1.0  0.09375  0.21874999999999994  0.34375000000000006  1.0000
  Mn  Mn365     1.0  0.09375  0.28125  0.34375000000000006  1.0000
  Mn  Mn366     1.0  0.09375  0.34375  0.34375000000000006  1.0000
  Mn  Mn367     1.0  0.09375  0.4062499999999999  0.34375000000000006  1.0000
  Mn  Mn368     1.0  0.09375  0.4687499999999999  0.34375000000000006  1.0000
  Mn  Mn369     1.0  0.125  0.0  0.31250000000000006  1.0000
  Mn  Mn370     1.0  0.125  0.12499999999999997  0.31250000000000006  1.0000
  Mn  Mn371     1.0  0.125  0.24999999999999994  0.31250000000000006  1.0000
  Mn  Mn372     1.0  0.125  0.37499999999999994  0.31250000000000006  1.0000
  Mn  Mn373     1.0  0.125  0.5625  0.31250000000000006  1.0000
  Mn  Mn374     1.0  0.125  0.6875  0.31250000000000006  1.0000
  Mn  Mn375     1.0  0.125  0.8124999999999998  0.31250000000000006  1.0000
  Mn  Mn376     1.0  0.125  0.9374999999999998  0.31250000000000006  1.0000
  Mn  Mn377     1.0  0.15625000000000006  0.031249999999999993  0.2812499999999999  1.0000
  Mn  Mn378     1.0  0.15625000000000006  0.09374999999999999  0.2812499999999999  1.0000
  Mn  Mn379     1.0  0.15625000000000006  0.15625  0.2812499999999999  1.0000
  Mn  Mn380     1.0  0.15625000000000006  0.21874999999999994  0.2812499999999999  1.0000
  Mn  Mn381     1.0  0.15625000000000006  0.28125  0.2812499999999999  1.0000
  Mn  Mn382     1.0  0.15625000000000006  0.34375  0.2812499999999999  1.0000
  Mn  Mn383     1.0  0.15625000000000006  0.4062499999999999  0.2812499999999999  1.0000
  Mn  Mn384     1.0  0.15625000000000006  0.4687499999999999  0.2812499999999999  1.0000
  Mn  Mn385     1.0  0.1875  0.062499999999999986  0.25  1.0000
  Mn  Mn386     1.0  0.1875  0.18749999999999997  0.25  1.0000
  Mn  Mn387     1.0  0.1875  0.3125  0.25  1.0000
  Mn  Mn388     1.0  0.1875  0.4374999999999999  0.25  1.0000
  Mn  Mn389     1.0  0.1875  0.4999999999999999  0.25  1.0000
  Mn  Mn390     1.0  0.1875  0.625  0.25  1.0000
  Mn  Mn391     1.0  0.1875  0.7499999999999999  0.25  1.0000
  Mn  Mn392     1.0  0.1875  0.8749999999999998  0.25  1.0000
  Mn  Mn393     1.0  0.21875  0.031249999999999993  0.21875000000000006  1.0000
  Mn  Mn394     1.0  0.21875  0.09374999999999999  0.21875000000000006  1.0000
  Mn  Mn395     1.0  0.21875  0.15625  0.21875000000000006  1.0000
  Mn  Mn396     1.0  0.21875  0.21874999999999994  0.21875000000000006  1.0000
  Mn  Mn397     1.0  0.21875  0.28125  0.21875000000000006  1.0000
  Mn  Mn398     1.0  0.21875  0.34375  0.21875000000000006  1.0000
  Mn  Mn399     1.0  0.21875  0.4062499999999999  0.21875000000000006  1.0000
  Mn  Mn400     1.0  0.21875  0.4687499999999999  0.21875000000000006  1.0000
  Mn  Mn401     1.0  0.25  0.0  0.18750000000000006  1.0000
  Mn  Mn402     1.0  0.25  0.12499999999999997  0.18750000000000006  1.0000
  Mn  Mn403     1.0  0.25  0.24999999999999994  0.18750000000000006  1.0000
  Mn  Mn404     1.0  0.25  0.37499999999999994  0.18750000000000006  1.0000
  Mn  Mn405     1.0  0.25  0.5625  0.18750000000000006  1.0000
  Mn  Mn406     1.0  0.25  0.6875  0.18750000000000006  1.0000
  Mn  Mn407     1.0  0.25  0.8124999999999998  0.18750000000000006  1.0000
  Mn  Mn408     1.0  0.25  0.9374999999999998  0.18750000000000006  1.0000
  Mn  Mn409     1.0  0.28125  0.031249999999999993  0.15625000000000003  1.0000
  Mn  Mn410     1.0  0.28125  0.09374999999999999  0.15625000000000003  1.0000
  Mn  Mn411     1.0  0.28125  0.15625  0.15625000000000003  1.0000
  Mn  Mn412     1.0  0.28125  0.21874999999999994  0.15625000000000003  1.0000
  Mn  Mn413     1.0  0.28125  0.28125  0.15625000000000003  1.0000
  Mn  Mn414     1.0  0.28125  0.34375  0.15625000000000003  1.0000
  Mn  Mn415     1.0  0.28125  0.4062499999999999  0.15625000000000003  1.0000
  Mn  Mn416     1.0  0.28125  0.4687499999999999  0.15625000000000003  1.0000
  Mn  Mn417     1.0  0.3125000000000001  0.062499999999999986  0.12500000000000006  1.0000
  Mn  Mn418     1.0  0.3125000000000001  0.18749999999999997  0.12500000000000006  1.0000
  Mn  Mn419     1.0  0.3125000000000001  0.3125  0.12500000000000006  1.0000
  Mn  Mn420     1.0  0.3125000000000001  0.4374999999999999  0.12500000000000006  1.0000
  Mn  Mn421     1.0  0.3125000000000001  0.4999999999999999  0.12500000000000006  1.0000
  Mn  Mn422     1.0  0.3125000000000001  0.625  0.12500000000000006  1.0000
  Mn  Mn423     1.0  0.3125000000000001  0.7499999999999999  0.12500000000000006  1.0000
  Mn  Mn424     1.0  0.3125000000000001  0.8749999999999998  0.12500000000000006  1.0000
  Mn  Mn425     1.0  0.3437500000000001  0.031249999999999993  0.09375000000000004  1.0000
  Mn  Mn426     1.0  0.3437500000000001  0.09374999999999999  0.09375000000000004  1.0000
  Mn  Mn427     1.0  0.3437500000000001  0.15625  0.09375000000000004  1.0000
  Mn  Mn428     1.0  0.3437500000000001  0.21874999999999994  0.09375000000000004  1.0000
  Mn  Mn429     1.0  0.3437500000000001  0.28125  0.09375000000000004  1.0000
  Mn  Mn430     1.0  0.3437500000000001  0.34375  0.09375000000000004  1.0000
  Mn  Mn431     1.0  0.3437500000000001  0.4062499999999999  0.09375000000000004  1.0000
  Mn  Mn432     1.0  0.3437500000000001  0.4687499999999999  0.09375000000000004  1.0000
  Mn  Mn433     1.0  0.375  0.0  0.06250000000000006  1.0000
  Mn  Mn434     1.0  0.375  0.12499999999999997  0.06250000000000006  1.0000
  Mn  Mn435     1.0  0.375  0.24999999999999994  0.06250000000000006  1.0000
  Mn  Mn436     1.0  0.375  0.37499999999999994  0.06250000000000006  1.0000
  Mn  Mn437     1.0  0.375  0.5625  0.06250000000000006  1.0000
  Mn  Mn438     1.0  0.375  0.6875  0.06250000000000006  1.0000
  Mn  Mn439     1.0  0.375  0.8124999999999998  0.06250000000000006  1.0000
  Mn  Mn440     1.0  0.375  0.9374999999999998  0.06250000000000006  1.0000
  Mn  Mn441     1.0  0.40625  0.031249999999999993  0.03125000000000005  1.0000
  Mn  Mn442     1.0  0.40625  0.09374999999999999  0.03125000000000005  1.0000
  Mn  Mn443     1.0  0.40625  0.15625  0.03125000000000005  1.0000
  Mn  Mn444     1.0  0.40625  0.21874999999999994  0.03125000000000005  1.0000
  Mn  Mn445     1.0  0.40625  0.28125  0.03125000000000005  1.0000
  Mn  Mn446     1.0  0.40625  0.34375  0.03125000000000005  1.0000
  Mn  Mn447     1.0  0.40625  0.4062499999999999  0.03125000000000005  1.0000
  Mn  Mn448     1.0  0.40625  0.4687499999999999  0.03125000000000005  1.0000
  Mn  Mn449     1.0  0.0  0.0  0.5  1.0000
  Mn  Mn450     1.0  0.0  0.12499999999999997  0.5  1.0000
  Mn  Mn451     1.0  0.0  0.24999999999999994  0.5  1.0000
  Mn  Mn452     1.0  0.0  0.37499999999999994  0.5  1.0000
  Mn  Mn453     1.0  0.0  0.5625  0.5  1.0000
  Mn  Mn454     1.0  0.0  0.6875  0.5  1.0000
  Mn  Mn455     1.0  0.0  0.8124999999999998  0.5  1.0000
  Mn  Mn456     1.0  0.0  0.9374999999999998  0.5  1.0000
  Mn  Mn457     1.0  0.03125  0.53125  0.4687499999999999  1.0000
  Mn  Mn458     1.0  0.03125  0.59375  0.4687499999999999  1.0000
  Mn  Mn459     1.0  0.03125  0.65625  0.4687499999999999  1.0000
  Mn  Mn460     1.0  0.03125  0.7187499999999999  0.4687499999999999  1.0000
  Mn  Mn461     1.0  0.03125  0.7812499999999999  0.4687499999999999  1.0000
  Mn  Mn462     1.0  0.03125  0.8437499999999998  0.4687499999999999  1.0000
  Mn  Mn463     1.0  0.03125  0.9062499999999998  0.4687499999999999  1.0000
  Mn  Mn464     1.0  0.03125  0.9687499999999998  0.4687499999999999  1.0000
  Mn  Mn465     1.0  0.0625  0.062499999999999986  0.43749999999999994  1.0000
  Mn  Mn466     1.0  0.0625  0.18749999999999997  0.43749999999999994  1.0000
  Mn  Mn467     1.0  0.0625  0.3125  0.43749999999999994  1.0000
  Mn  Mn468     1.0  0.0625  0.4374999999999999  0.43749999999999994  1.0000
  Mn  Mn469     1.0  0.0625  0.4999999999999999  0.43749999999999994  1.0000
  Mn  Mn470     1.0  0.0625  0.625  0.43749999999999994  1.0000
  Mn  Mn471     1.0  0.0625  0.7499999999999999  0.43749999999999994  1.0000
  Mn  Mn472     1.0  0.0625  0.8749999999999998  0.43749999999999994  1.0000
  Mn  Mn473     1.0  0.09375  0.53125  0.40624999999999994  1.0000
  Mn  Mn474     1.0  0.09375  0.59375  0.40624999999999994  1.0000
  Mn  Mn475     1.0  0.09375  0.65625  0.40624999999999994  1.0000
  Mn  Mn476     1.0  0.09375  0.7187499999999999  0.40624999999999994  1.0000
  Mn  Mn477     1.0  0.09375  0.7812499999999999  0.40624999999999994  1.0000
  Mn  Mn478     1.0  0.09375  0.8437499999999998  0.40624999999999994  1.0000
  Mn  Mn479     1.0  0.09375  0.9062499999999998  0.40624999999999994  1.0000
  Mn  Mn480     1.0  0.09375  0.9687499999999998  0.40624999999999994  1.0000
  Mn  Mn481     1.0  0.125  0.0  0.37499999999999994  1.0000
  Mn  Mn482     1.0  0.125  0.12499999999999997  0.37499999999999994  1.0000
  Mn  Mn483     1.0  0.125  0.24999999999999994  0.37499999999999994  1.0000
  Mn  Mn484     1.0  0.125  0.37499999999999994  0.37499999999999994  1.0000
  Mn  Mn485     1.0  0.125  0.5625  0.37499999999999994  1.0000
  Mn  Mn486     1.0  0.125  0.6875  0.37499999999999994  1.0000
  Mn  Mn487     1.0  0.125  0.8124999999999998  0.37499999999999994  1.0000
  Mn  Mn488     1.0  0.125  0.9374999999999998  0.37499999999999994  1.0000
  Mn  Mn489     1.0  0.15625000000000006  0.53125  0.34375000000000006  1.0000
  Mn  Mn490     1.0  0.15625000000000006  0.59375  0.34375000000000006  1.0000
  Mn  Mn491     1.0  0.15625000000000006  0.65625  0.34375000000000006  1.0000
  Mn  Mn492     1.0  0.15625000000000006  0.7187499999999999  0.34375000000000006  1.0000
  Mn  Mn493     1.0  0.15625000000000006  0.7812499999999999  0.34375000000000006  1.0000
  Mn  Mn494     1.0  0.15625000000000006  0.8437499999999998  0.34375000000000006  1.0000
  Mn  Mn495     1.0  0.15625000000000006  0.9062499999999998  0.34375000000000006  1.0000
  Mn  Mn496     1.0  0.15625000000000006  0.9687499999999998  0.34375000000000006  1.0000
  Mn  Mn497     1.0  0.1875  0.062499999999999986  0.31250000000000006  1.0000
  Mn  Mn498     1.0  0.1875  0.18749999999999997  0.31250000000000006  1.0000
  Mn  Mn499     1.0  0.1875  0.3125  0.31250000000000006  1.0000
  Mn  Mn500     1.0  0.1875  0.4374999999999999  0.31250000000000006  1.0000
  Mn  Mn501     1.0  0.1875  0.4999999999999999  0.31250000000000006  1.0000
  Mn  Mn502     1.0  0.1875  0.625  0.31250000000000006  1.0000
  Mn  Mn503     1.0  0.1875  0.7499999999999999  0.31250000000000006  1.0000
  Mn  Mn504     1.0  0.1875  0.8749999999999998  0.31250000000000006  1.0000
  Mn  Mn505     1.0  0.21875  0.53125  0.2812499999999999  1.0000
  Mn  Mn506     1.0  0.21875  0.59375  0.2812499999999999  1.0000
  Mn  Mn507     1.0  0.21875  0.65625  0.2812499999999999  1.0000
  Mn  Mn508     1.0  0.21875  0.7187499999999999  0.2812499999999999  1.0000
  Mn  Mn509     1.0  0.21875  0.7812499999999999  0.2812499999999999  1.0000
  Mn  Mn510     1.0  0.21875  0.8437499999999998  0.2812499999999999  1.0000
  Mn  Mn511     1.0  0.21875  0.9062499999999998  0.2812499999999999  1.0000
  Mn  Mn512     1.0  0.21875  0.9687499999999998  0.2812499999999999  1.0000
  Mn  Mn513     1.0  0.25  0.0  0.25  1.0000
  Mn  Mn514     1.0  0.25  0.12499999999999997  0.25  1.0000
  Mn  Mn515     1.0  0.25  0.24999999999999994  0.25  1.0000
  Mn  Mn516     1.0  0.25  0.37499999999999994  0.25  1.0000
  Mn  Mn517     1.0  0.25  0.5625  0.25  1.0000
  Mn  Mn518     1.0  0.25  0.6875  0.25  1.0000
  Mn  Mn519     1.0  0.25  0.8124999999999998  0.25  1.0000
  Mn  Mn520     1.0  0.25  0.9374999999999998  0.25  1.0000
  Mn  Mn521     1.0  0.28125  0.53125  0.21875000000000006  1.0000
  Mn  Mn522     1.0  0.28125  0.59375  0.21875000000000006  1.0000
  Mn  Mn523     1.0  0.28125  0.65625  0.21875000000000006  1.0000
  Mn  Mn524     1.0  0.28125  0.7187499999999999  0.21875000000000006  1.0000
  Mn  Mn525     1.0  0.28125  0.7812499999999999  0.21875000000000006  1.0000
  Mn  Mn526     1.0  0.28125  0.8437499999999998  0.21875000000000006  1.0000
  Mn  Mn527     1.0  0.28125  0.9062499999999998  0.21875000000000006  1.0000
  Mn  Mn528     1.0  0.28125  0.9687499999999998  0.21875000000000006  1.0000
  Mn  Mn529     1.0  0.3125000000000001  0.062499999999999986  0.18750000000000006  1.0000
  Mn  Mn530     1.0  0.3125000000000001  0.18749999999999997  0.18750000000000006  1.0000
  Mn  Mn531     1.0  0.3125000000000001  0.3125  0.18750000000000006  1.0000
  Mn  Mn532     1.0  0.3125000000000001  0.4374999999999999  0.18750000000000006  1.0000
  Mn  Mn533     1.0  0.3125000000000001  0.4999999999999999  0.18750000000000006  1.0000
  Mn  Mn534     1.0  0.3125000000000001  0.625  0.18750000000000006  1.0000
  Mn  Mn535     1.0  0.3125000000000001  0.7499999999999999  0.18750000000000006  1.0000
  Mn  Mn536     1.0  0.3125000000000001  0.8749999999999998  0.18750000000000006  1.0000
  Mn  Mn537     1.0  0.3437500000000001  0.53125  0.15625000000000003  1.0000
  Mn  Mn538     1.0  0.3437500000000001  0.59375  0.15625000000000003  1.0000
  Mn  Mn539     1.0  0.3437500000000001  0.65625  0.15625000000000003  1.0000
  Mn  Mn540     1.0  0.3437500000000001  0.7187499999999999  0.15625000000000003  1.0000
  Mn  Mn541     1.0  0.3437500000000001  0.7812499999999999  0.15625000000000003  1.0000
  Mn  Mn542     1.0  0.3437500000000001  0.8437499999999998  0.15625000000000003  1.0000
  Mn  Mn543     1.0  0.3437500000000001  0.9062499999999998  0.15625000000000003  1.0000
  Mn  Mn544     1.0  0.3437500000000001  0.9687499999999998  0.15625000000000003  1.0000
  Mn  Mn545     1.0  0.375  0.0  0.12500000000000006  1.0000
  Mn  Mn546     1.0  0.375  0.12499999999999997  0.12500000000000006  1.0000
  Mn  Mn547     1.0  0.375  0.24999999999999994  0.12500000000000006  1.0000
  Mn  Mn548     1.0  0.375  0.37499999999999994  0.12500000000000006  1.0000
  Mn  Mn549     1.0  0.375  0.5625  0.12500000000000006  1.0000
  Mn  Mn550     1.0  0.375  0.6875  0.12500000000000006  1.0000
  Mn  Mn551     1.0  0.375  0.8124999999999998  0.12500000000000006  1.0000
  Mn  Mn552     1.0  0.375  0.9374999999999998  0.12500000000000006  1.0000
  Mn  Mn553     1.0  0.40625  0.53125  0.09375000000000004  1.0000
  Mn  Mn554     1.0  0.40625  0.59375  0.09375000000000004  1.0000
  Mn  Mn555     1.0  0.40625  0.65625  0.09375000000000004  1.0000
  Mn  Mn556     1.0  0.40625  0.7187499999999999  0.09375000000000004  1.0000
  Mn  Mn557     1.0  0.40625  0.7812499999999999  0.09375000000000004  1.0000
  Mn  Mn558     1.0  0.40625  0.8437499999999998  0.09375000000000004  1.0000
  Mn  Mn559     1.0  0.40625  0.9062499999999998  0.09375000000000004  1.0000
  Mn  Mn560     1.0  0.40625  0.9687499999999998  0.09375000000000004  1.0000
  Mn  Mn561     1.0  0.4375  0.062499999999999986  0.06250000000000006  1.0000
  Mn  Mn562     1.0  0.4375  0.18749999999999997  0.06250000000000006  1.0000
  Mn  Mn563     1.0  0.4375  0.3125  0.06250000000000006  1.0000
  Mn  Mn564     1.0  0.4375  0.4374999999999999  0.06250000000000006  1.0000
  Mn  Mn565     1.0  0.4375  0.4999999999999999  0.06250000000000006  1.0000
  Mn  Mn566     1.0  0.4375  0.625  0.06250000000000006  1.0000
  Mn  Mn567     1.0  0.4375  0.7499999999999999  0.06250000000000006  1.0000
  Mn  Mn568     1.0  0.4375  0.8749999999999998  0.06250000000000006  1.0000
  Mn  Mn569     1.0  0.46875  0.53125  0.03125000000000005  1.0000
  Mn  Mn570     1.0  0.46875  0.59375  0.03125000000000005  1.0000
  Mn  Mn571     1.0  0.46875  0.65625  0.03125000000000005  1.0000
  Mn  Mn572     1.0  0.46875  0.7187499999999999  0.03125000000000005  1.0000
  Mn  Mn573     1.0  0.46875  0.7812499999999999  0.03125000000000005  1.0000
  Mn  Mn574     1.0  0.46875  0.8437499999999998  0.03125000000000005  1.0000
  Mn  Mn575     1.0  0.46875  0.9062499999999998  0.03125000000000005  1.0000
  Mn  Mn576     1.0  0.46875  0.9687499999999998  0.03125000000000005  1.0000
  Mn  Mn577     1.0  0.0  0.0  0.5625000000000001  1.0000
  Mn  Mn578     1.0  0.0  0.12499999999999997  0.5625000000000001  1.0000
  Mn  Mn579     1.0  0.0  0.24999999999999994  0.5625000000000001  1.0000
  Mn  Mn580     1.0  0.0  0.37499999999999994  0.5625000000000001  1.0000
  Mn  Mn581     1.0  0.0  0.5625  0.5625000000000001  1.0000
  Mn  Mn582     1.0  0.0  0.6875  0.5625000000000001  1.0000
  Mn  Mn583     1.0  0.0  0.8124999999999998  0.5625000000000001  1.0000
  Mn  Mn584     1.0  0.0  0.9374999999999998  0.5625000000000001  1.0000
  Mn  Mn585     1.0  0.03125  0.031249999999999993  0.53125  1.0000
  Mn  Mn586     1.0  0.03125  0.09374999999999999  0.53125  1.0000
  Mn  Mn587     1.0  0.03125  0.15625  0.53125  1.0000
  Mn  Mn588     1.0  0.03125  0.21874999999999994  0.53125  1.0000
  Mn  Mn589     1.0  0.03125  0.28125  0.53125  1.0000
  Mn  Mn590     1.0  0.03125  0.34375  0.53125  1.0000
  Mn  Mn591     1.0  0.03125  0.4062499999999999  0.53125  1.0000
  Mn  Mn592     1.0  0.03125  0.4687499999999999  0.53125  1.0000
  Mn  Mn593     1.0  0.0625  0.062499999999999986  0.5  1.0000
  Mn  Mn594     1.0  0.0625  0.18749999999999997  0.5  1.0000
  Mn  Mn595     1.0  0.0625  0.3125  0.5  1.0000
  Mn  Mn596     1.0  0.0625  0.4374999999999999  0.5  1.0000
  Mn  Mn597     1.0  0.0625  0.4999999999999999  0.5  1.0000
  Mn  Mn598     1.0  0.0625  0.625  0.5  1.0000
  Mn  Mn599     1.0  0.0625  0.7499999999999999  0.5  1.0000
  Mn  Mn600     1.0  0.0625  0.8749999999999998  0.5  1.0000
  Mn  Mn601     1.0  0.09375  0.031249999999999993  0.4687499999999999  1.0000
  Mn  Mn602     1.0  0.09375  0.09374999999999999  0.4687499999999999  1.0000
  Mn  Mn603     1.0  0.09375  0.15625  0.4687499999999999  1.0000
  Mn  Mn604     1.0  0.09375  0.21874999999999994  0.4687499999999999  1.0000
  Mn  Mn605     1.0  0.09375  0.28125  0.4687499999999999  1.0000
  Mn  Mn606     1.0  0.09375  0.34375  0.4687499999999999  1.0000
  Mn  Mn607     1.0  0.09375  0.4062499999999999  0.4687499999999999  1.0000
  Mn  Mn608     1.0  0.09375  0.4687499999999999  0.4687499999999999  1.0000
  Mn  Mn609     1.0  0.125  0.0  0.43749999999999994  1.0000
  Mn  Mn610     1.0  0.125  0.12499999999999997  0.43749999999999994  1.0000
  Mn  Mn611     1.0  0.125  0.24999999999999994  0.43749999999999994  1.0000
  Mn  Mn612     1.0  0.125  0.37499999999999994  0.43749999999999994  1.0000
  Mn  Mn613     1.0  0.125  0.5625  0.43749999999999994  1.0000
  Mn  Mn614     1.0  0.125  0.6875  0.43749999999999994  1.0000
  Mn  Mn615     1.0  0.125  0.8124999999999998  0.43749999999999994  1.0000
  Mn  Mn616     1.0  0.125  0.9374999999999998  0.43749999999999994  1.0000
  Mn  Mn617     1.0  0.15625000000000006  0.031249999999999993  0.40624999999999994  1.0000
  Mn  Mn618     1.0  0.15625000000000006  0.09374999999999999  0.40624999999999994  1.0000
  Mn  Mn619     1.0  0.15625000000000006  0.15625  0.40624999999999994  1.0000
  Mn  Mn620     1.0  0.15625000000000006  0.21874999999999994  0.40624999999999994  1.0000
  Mn  Mn621     1.0  0.15625000000000006  0.28125  0.40624999999999994  1.0000
  Mn  Mn622     1.0  0.15625000000000006  0.34375  0.40624999999999994  1.0000
  Mn  Mn623     1.0  0.15625000000000006  0.4062499999999999  0.40624999999999994  1.0000
  Mn  Mn624     1.0  0.15625000000000006  0.4687499999999999  0.40624999999999994  1.0000
  Mn  Mn625     1.0  0.1875  0.062499999999999986  0.37499999999999994  1.0000
  Mn  Mn626     1.0  0.1875  0.18749999999999997  0.37499999999999994  1.0000
  Mn  Mn627     1.0  0.1875  0.3125  0.37499999999999994  1.0000
  Mn  Mn628     1.0  0.1875  0.4374999999999999  0.37499999999999994  1.0000
  Mn  Mn629     1.0  0.1875  0.4999999999999999  0.37499999999999994  1.0000
  Mn  Mn630     1.0  0.1875  0.625  0.37499999999999994  1.0000
  Mn  Mn631     1.0  0.1875  0.7499999999999999  0.37499999999999994  1.0000
  Mn  Mn632     1.0  0.1875  0.8749999999999998  0.37499999999999994  1.0000
  Mn  Mn633     1.0  0.21875  0.031249999999999993  0.34375000000000006  1.0000
  Mn  Mn634     1.0  0.21875  0.09374999999999999  0.34375000000000006  1.0000
  Mn  Mn635     1.0  0.21875  0.15625  0.34375000000000006  1.0000
  Mn  Mn636     1.0  0.21875  0.21874999999999994  0.34375000000000006  1.0000
  Mn  Mn637     1.0  0.21875  0.28125  0.34375000000000006  1.0000
  Mn  Mn638     1.0  0.21875  0.34375  0.34375000000000006  1.0000
  Mn  Mn639     1.0  0.21875  0.4062499999999999  0.34375000000000006  1.0000
  Mn  Mn640     1.0  0.21875  0.4687499999999999  0.34375000000000006  1.0000
  Mn  Mn641     1.0  0.25  0.0  0.31250000000000006  1.0000
  Mn  Mn642     1.0  0.25  0.12499999999999997  0.31250000000000006  1.0000
  Mn  Mn643     1.0  0.25  0.24999999999999994  0.31250000000000006  1.0000
  Mn  Mn644     1.0  0.25  0.37499999999999994  0.31250000000000006  1.0000
  Mn  Mn645     1.0  0.25  0.5625  0.31250000000000006  1.0000
  Mn  Mn646     1.0  0.25  0.6875  0.31250000000000006  1.0000
  Mn  Mn647     1.0  0.25  0.8124999999999998  0.31250000000000006  1.0000
  Mn  Mn648     1.0  0.25  0.9374999999999998  0.31250000000000006  1.0000
  Mn  Mn649     1.0  0.28125  0.031249999999999993  0.2812499999999999  1.0000
  Mn  Mn650     1.0  0.28125  0.09374999999999999  0.2812499999999999  1.0000
  Mn  Mn651     1.0  0.28125  0.15625  0.2812499999999999  1.0000
  Mn  Mn652     1.0  0.28125  0.21874999999999994  0.2812499999999999  1.0000
  Mn  Mn653     1.0  0.28125  0.28125  0.2812499999999999  1.0000
  Mn  Mn654     1.0  0.28125  0.34375  0.2812499999999999  1.0000
  Mn  Mn655     1.0  0.28125  0.4062499999999999  0.2812499999999999  1.0000
  Mn  Mn656     1.0  0.28125  0.4687499999999999  0.2812499999999999  1.0000
  Mn  Mn657     1.0  0.3125000000000001  0.062499999999999986  0.25  1.0000
  Mn  Mn658     1.0  0.3125000000000001  0.18749999999999997  0.25  1.0000
  Mn  Mn659     1.0  0.3125000000000001  0.3125  0.25  1.0000
  Mn  Mn660     1.0  0.3125000000000001  0.4374999999999999  0.25  1.0000
  Mn  Mn661     1.0  0.3125000000000001  0.4999999999999999  0.25  1.0000
  Mn  Mn662     1.0  0.3125000000000001  0.625  0.25  1.0000
  Mn  Mn663     1.0  0.3125000000000001  0.7499999999999999  0.25  1.0000
  Mn  Mn664     1.0  0.3125000000000001  0.8749999999999998  0.25  1.0000
  Mn  Mn665     1.0  0.3437500000000001  0.031249999999999993  0.21875000000000006  1.0000
  Mn  Mn666     1.0  0.3437500000000001  0.09374999999999999  0.21875000000000006  1.0000
  Mn  Mn667     1.0  0.3437500000000001  0.15625  0.21875000000000006  1.0000
  Mn  Mn668     1.0  0.3437500000000001  0.21874999999999994  0.21875000000000006  1.0000
  Mn  Mn669     1.0  0.3437500000000001  0.28125  0.21875000000000006  1.0000
  Mn  Mn670     1.0  0.3437500000000001  0.34375  0.21875000000000006  1.0000
  Mn  Mn671     1.0  0.3437500000000001  0.4062499999999999  0.21875000000000006  1.0000
  Mn  Mn672     1.0  0.3437500000000001  0.4687499999999999  0.21875000000000006  1.0000
  Mn  Mn673     1.0  0.375  0.0  0.18750000000000006  1.0000
  Mn  Mn674     1.0  0.375  0.12499999999999997  0.18750000000000006  1.0000
  Mn  Mn675     1.0  0.375  0.24999999999999994  0.18750000000000006  1.0000
  Mn  Mn676     1.0  0.375  0.37499999999999994  0.18750000000000006  1.0000
  Mn  Mn677     1.0  0.375  0.5625  0.18750000000000006  1.0000
  Mn  Mn678     1.0  0.375  0.6875  0.18750000000000006  1.0000
  Mn  Mn679     1.0  0.375  0.8124999999999998  0.18750000000000006  1.0000
  Mn  Mn680     1.0  0.375  0.9374999999999998  0.18750000000000006  1.0000
  Mn  Mn681     1.0  0.40625  0.031249999999999993  0.15625000000000003  1.0000
  Mn  Mn682     1.0  0.40625  0.09374999999999999  0.15625000000000003  1.0000
  Mn  Mn683     1.0  0.40625  0.15625  0.15625000000000003  1.0000
  Mn  Mn684     1.0  0.40625  0.21874999999999994  0.15625000000000003  1.0000
  Mn  Mn685     1.0  0.40625  0.28125  0.15625000000000003  1.0000
  Mn  Mn686     1.0  0.40625  0.34375  0.15625000000000003  1.0000
  Mn  Mn687     1.0  0.40625  0.4062499999999999  0.15625000000000003  1.0000
  Mn  Mn688     1.0  0.40625  0.4687499999999999  0.15625000000000003  1.0000
  Mn  Mn689     1.0  0.4375  0.062499999999999986  0.12500000000000006  1.0000
  Mn  Mn690     1.0  0.4375  0.18749999999999997  0.12500000000000006  1.0000
  Mn  Mn691     1.0  0.4375  0.3125  0.12500000000000006  1.0000
  Mn  Mn692     1.0  0.4375  0.4374999999999999  0.12500000000000006  1.0000
  Mn  Mn693     1.0  0.4375  0.4999999999999999  0.12500000000000006  1.0000
  Mn  Mn694     1.0  0.4375  0.625  0.12500000000000006  1.0000
  Mn  Mn695     1.0  0.4375  0.7499999999999999  0.12500000000000006  1.0000
  Mn  Mn696     1.0  0.4375  0.8749999999999998  0.12500000000000006  1.0000
  Mn  Mn697     1.0  0.46875  0.031249999999999993  0.09375000000000004  1.0000
  Mn  Mn698     1.0  0.46875  0.09374999999999999  0.09375000000000004  1.0000
  Mn  Mn699     1.0  0.46875  0.15625  0.09375000000000004  1.0000
  Mn  Mn700     1.0  0.46875  0.21874999999999994  0.09375000000000004  1.0000
  Mn  Mn701     1.0  0.46875  0.28125  0.09375000000000004  1.0000
  Mn  Mn702     1.0  0.46875  0.34375  0.09375000000000004  1.0000
  Mn  Mn703     1.0  0.46875  0.4062499999999999  0.09375000000000004  1.0000
  Mn  Mn704     1.0  0.46875  0.4687499999999999  0.09375000000000004  1.0000
  Mn  Mn705     1.0  0.49999999999999994  0.0  0.06250000000000006  1.0000
  Mn  Mn706     1.0  0.49999999999999994  0.12499999999999997  0.06250000000000006  1.0000
  Mn  Mn707     1.0  0.49999999999999994  0.24999999999999994  0.06250000000000006  1.0000
  Mn  Mn708     1.0  0.49999999999999994  0.37499999999999994  0.06250000000000006  1.0000
  Mn  Mn709     1.0  0.49999999999999994  0.5625  0.06250000000000006  1.0000
  Mn  Mn710     1.0  0.49999999999999994  0.6875  0.06250000000000006  1.0000
  Mn  Mn711     1.0  0.49999999999999994  0.8124999999999998  0.06250000000000006  1.0000
  Mn  Mn712     1.0  0.49999999999999994  0.9374999999999998  0.06250000000000006  1.0000
  Mn  Mn713     1.0  0.53125  0.031249999999999993  0.03125000000000005  1.0000
  Mn  Mn714     1.0  0.53125  0.09374999999999999  0.03125000000000005  1.0000
  Mn  Mn715     1.0  0.53125  0.15625  0.03125000000000005  1.0000
  Mn  Mn716     1.0  0.53125  0.21874999999999994  0.03125000000000005  1.0000
  Mn  Mn717     1.0  0.53125  0.28125  0.03125000000000005  1.0000
  Mn  Mn718     1.0  0.53125  0.34375  0.03125000000000005  1.0000
  Mn  Mn719     1.0  0.53125  0.4062499999999999  0.03125000000000005  1.0000
  Mn  Mn720     1.0  0.53125  0.4687499999999999  0.03125000000000005  1.0000
  Mn  Mn721     1.0  0.0  0.0  0.6250000000000001  1.0000
  Mn  Mn722     1.0  0.0  0.12499999999999997  0.6250000000000001  1.0000
  Mn  Mn723     1.0  0.0  0.24999999999999994  0.6250000000000001  1.0000
  Mn  Mn724     1.0  0.0  0.37499999999999994  0.6250000000000001  1.0000
  Mn  Mn725     1.0  0.0  0.5625  0.6250000000000001  1.0000
  Mn  Mn726     1.0  0.0  0.6875  0.6250000000000001  1.0000
  Mn  Mn727     1.0  0.0  0.8124999999999998  0.6250000000000001  1.0000
  Mn  Mn728     1.0  0.0  0.9374999999999998  0.6250000000000001  1.0000
  Mn  Mn729     1.0  0.03125  0.53125  0.5937500000000001  1.0000
  Mn  Mn730     1.0  0.03125  0.59375  0.5937500000000001  1.0000
  Mn  Mn731     1.0  0.03125  0.65625  0.5937500000000001  1.0000
  Mn  Mn732     1.0  0.03125  0.7187499999999999  0.5937500000000001  1.0000
  Mn  Mn733     1.0  0.03125  0.7812499999999999  0.5937500000000001  1.0000
  Mn  Mn734     1.0  0.03125  0.8437499999999998  0.5937500000000001  1.0000
  Mn  Mn735     1.0  0.03125  0.9062499999999998  0.5937500000000001  1.0000
  Mn  Mn736     1.0  0.03125  0.9687499999999998  0.5937500000000001  1.0000
  Mn  Mn737     1.0  0.0625  0.062499999999999986  0.5625000000000001  1.0000
  Mn  Mn738     1.0  0.0625  0.18749999999999997  0.5625000000000001  1.0000
  Mn  Mn739     1.0  0.0625  0.3125  0.5625000000000001  1.0000
  Mn  Mn740     1.0  0.0625  0.4374999999999999  0.5625000000000001  1.0000
  Mn  Mn741     1.0  0.0625  0.4999999999999999  0.5625000000000001  1.0000
  Mn  Mn742     1.0  0.0625  0.625  0.5625000000000001  1.0000
  Mn  Mn743     1.0  0.0625  0.7499999999999999  0.5625000000000001  1.0000
  Mn  Mn744     1.0  0.0625  0.8749999999999998  0.5625000000000001  1.0000
  Mn  Mn745     1.0  0.09375  0.53125  0.53125  1.0000
  Mn  Mn746     1.0  0.09375  0.59375  0.53125  1.0000
  Mn  Mn747     1.0  0.09375  0.65625  0.53125  1.0000
  Mn  Mn748     1.0  0.09375  0.7187499999999999  0.53125  1.0000
  Mn  Mn749     1.0  0.09375  0.7812499999999999  0.53125  1.0000
  Mn  Mn750     1.0  0.09375  0.8437499999999998  0.53125  1.0000
  Mn  Mn751     1.0  0.09375  0.9062499999999998  0.53125  1.0000
  Mn  Mn752     1.0  0.09375  0.9687499999999998  0.53125  1.0000
  Mn  Mn753     1.0  0.125  0.0  0.5  1.0000
  Mn  Mn754     1.0  0.125  0.12499999999999997  0.5  1.0000
  Mn  Mn755     1.0  0.125  0.24999999999999994  0.5  1.0000
  Mn  Mn756     1.0  0.125  0.37499999999999994  0.5  1.0000
  Mn  Mn757     1.0  0.125  0.5625  0.5  1.0000
  Mn  Mn758     1.0  0.125  0.6875  0.5  1.0000
  Mn  Mn759     1.0  0.125  0.8124999999999998  0.5  1.0000
  Mn  Mn760     1.0  0.125  0.9374999999999998  0.5  1.0000
  Mn  Mn761     1.0  0.15625000000000006  0.53125  0.4687499999999999  1.0000
  Mn  Mn762     1.0  0.15625000000000006  0.59375  0.4687499999999999  1.0000
  Mn  Mn763     1.0  0.15625000000000006  0.65625  0.4687499999999999  1.0000
  Mn  Mn764     1.0  0.15625000000000006  0.7187499999999999  0.4687499999999999  1.0000
  Mn  Mn765     1.0  0.15625000000000006  0.7812499999999999  0.4687499999999999  1.0000
  Mn  Mn766     1.0  0.15625000000000006  0.8437499999999998  0.4687499999999999  1.0000
  Mn  Mn767     1.0  0.15625000000000006  0.9062499999999998  0.4687499999999999  1.0000
  Mn  Mn768     1.0  0.15625000000000006  0.9687499999999998  0.4687499999999999  1.0000
  Mn  Mn769     1.0  0.1875  0.062499999999999986  0.43749999999999994  1.0000
  Mn  Mn770     1.0  0.1875  0.18749999999999997  0.43749999999999994  1.0000
  Mn  Mn771     1.0  0.1875  0.3125  0.43749999999999994  1.0000
  Mn  Mn772     1.0  0.1875  0.4374999999999999  0.43749999999999994  1.0000
  Mn  Mn773     1.0  0.1875  0.4999999999999999  0.43749999999999994  1.0000
  Mn  Mn774     1.0  0.1875  0.625  0.43749999999999994  1.0000
  Mn  Mn775     1.0  0.1875  0.7499999999999999  0.43749999999999994  1.0000
  Mn  Mn776     1.0  0.1875  0.8749999999999998  0.43749999999999994  1.0000
  Mn  Mn777     1.0  0.21875  0.53125  0.40624999999999994  1.0000
  Mn  Mn778     1.0  0.21875  0.59375  0.40624999999999994  1.0000
  Mn  Mn779     1.0  0.21875  0.65625  0.40624999999999994  1.0000
  Mn  Mn780     1.0  0.21875  0.7187499999999999  0.40624999999999994  1.0000
  Mn  Mn781     1.0  0.21875  0.7812499999999999  0.40624999999999994  1.0000
  Mn  Mn782     1.0  0.21875  0.8437499999999998  0.40624999999999994  1.0000
  Mn  Mn783     1.0  0.21875  0.9062499999999998  0.40624999999999994  1.0000
  Mn  Mn784     1.0  0.21875  0.9687499999999998  0.40624999999999994  1.0000
  Mn  Mn785     1.0  0.25  0.0  0.37499999999999994  1.0000
  Mn  Mn786     1.0  0.25  0.12499999999999997  0.37499999999999994  1.0000
  Mn  Mn787     1.0  0.25  0.24999999999999994  0.37499999999999994  1.0000
  Mn  Mn788     1.0  0.25  0.37499999999999994  0.37499999999999994  1.0000
  Mn  Mn789     1.0  0.25  0.5625  0.37499999999999994  1.0000
  Mn  Mn790     1.0  0.25  0.6875  0.37499999999999994  1.0000
  Mn  Mn791     1.0  0.25  0.8124999999999998  0.37499999999999994  1.0000
  Mn  Mn792     1.0  0.25  0.9374999999999998  0.37499999999999994  1.0000
  Mn  Mn793     1.0  0.28125  0.53125  0.34375000000000006  1.0000
  Mn  Mn794     1.0  0.28125  0.59375  0.34375000000000006  1.0000
  Mn  Mn795     1.0  0.28125  0.65625  0.34375000000000006  1.0000
  Mn  Mn796     1.0  0.28125  0.7187499999999999  0.34375000000000006  1.0000
  Mn  Mn797     1.0  0.28125  0.7812499999999999  0.34375000000000006  1.0000
  Mn  Mn798     1.0  0.28125  0.8437499999999998  0.34375000000000006  1.0000
  Mn  Mn799     1.0  0.28125  0.9062499999999998  0.34375000000000006  1.0000
  Mn  Mn800     1.0  0.28125  0.9687499999999998  0.34375000000000006  1.0000
  Mn  Mn801     1.0  0.3125000000000001  0.062499999999999986  0.31250000000000006  1.0000
  Mn  Mn802     1.0  0.3125000000000001  0.18749999999999997  0.31250000000000006  1.0000
  Mn  Mn803     1.0  0.3125000000000001  0.3125  0.31250000000000006  1.0000
  Mn  Mn804     1.0  0.3125000000000001  0.4374999999999999  0.31250000000000006  1.0000
  Mn  Mn805     1.0  0.3125000000000001  0.4999999999999999  0.31250000000000006  1.0000
  Mn  Mn806     1.0  0.3125000000000001  0.625  0.31250000000000006  1.0000
  Mn  Mn807     1.0  0.3125000000000001  0.7499999999999999  0.31250000000000006  1.0000
  Mn  Mn808     1.0  0.3125000000000001  0.8749999999999998  0.31250000000000006  1.0000
  Mn  Mn809     1.0  0.3437500000000001  0.53125  0.2812499999999999  1.0000
  Mn  Mn810     1.0  0.3437500000000001  0.59375  0.2812499999999999  1.0000
  Mn  Mn811     1.0  0.3437500000000001  0.65625  0.2812499999999999  1.0000
  Mn  Mn812     1.0  0.3437500000000001  0.7187499999999999  0.2812499999999999  1.0000
  Mn  Mn813     1.0  0.3437500000000001  0.7812499999999999  0.2812499999999999  1.0000
  Mn  Mn814     1.0  0.3437500000000001  0.8437499999999998  0.2812499999999999  1.0000
  Mn  Mn815     1.0  0.3437500000000001  0.9062499999999998  0.2812499999999999  1.0000
  Mn  Mn816     1.0  0.3437500000000001  0.9687499999999998  0.2812499999999999  1.0000
  Mn  Mn817     1.0  0.375  0.0  0.25  1.0000
  Mn  Mn818     1.0  0.375  0.12499999999999997  0.25  1.0000
  Mn  Mn819     1.0  0.375  0.24999999999999994  0.25  1.0000
  Mn  Mn820     1.0  0.375  0.37499999999999994  0.25  1.0000
  Mn  Mn821     1.0  0.375  0.5625  0.25  1.0000
  Mn  Mn822     1.0  0.375  0.6875  0.25  1.0000
  Mn  Mn823     1.0  0.375  0.8124999999999998  0.25  1.0000
  Mn  Mn824     1.0  0.375  0.9374999999999998  0.25  1.0000
  Mn  Mn825     1.0  0.40625  0.53125  0.21875000000000006  1.0000
  Mn  Mn826     1.0  0.40625  0.59375  0.21875000000000006  1.0000
  Mn  Mn827     1.0  0.40625  0.65625  0.21875000000000006  1.0000
  Mn  Mn828     1.0  0.40625  0.7187499999999999  0.21875000000000006  1.0000
  Mn  Mn829     1.0  0.40625  0.7812499999999999  0.21875000000000006  1.0000
  Mn  Mn830     1.0  0.40625  0.8437499999999998  0.21875000000000006  1.0000
  Mn  Mn831     1.0  0.40625  0.9062499999999998  0.21875000000000006  1.0000
  Mn  Mn832     1.0  0.40625  0.9687499999999998  0.21875000000000006  1.0000
  Mn  Mn833     1.0  0.4375  0.062499999999999986  0.18750000000000006  1.0000
  Mn  Mn834     1.0  0.4375  0.18749999999999997  0.18750000000000006  1.0000
  Mn  Mn835     1.0  0.4375  0.3125  0.18750000000000006  1.0000
  Mn  Mn836     1.0  0.4375  0.4374999999999999  0.18750000000000006  1.0000
  Mn  Mn837     1.0  0.4375  0.4999999999999999  0.18750000000000006  1.0000
  Mn  Mn838     1.0  0.4375  0.625  0.18750000000000006  1.0000
  Mn  Mn839     1.0  0.4375  0.7499999999999999  0.18750000000000006  1.0000
  Mn  Mn840     1.0  0.4375  0.8749999999999998  0.18750000000000006  1.0000
  Mn  Mn841     1.0  0.46875  0.53125  0.15625000000000003  1.0000
  Mn  Mn842     1.0  0.46875  0.59375  0.15625000000000003  1.0000
  Mn  Mn843     1.0  0.46875  0.65625  0.15625000000000003  1.0000
  Mn  Mn844     1.0  0.46875  0.7187499999999999  0.15625000000000003  1.0000
  Mn  Mn845     1.0  0.46875  0.7812499999999999  0.15625000000000003  1.0000
  Mn  Mn846     1.0  0.46875  0.8437499999999998  0.15625000000000003  1.0000
  Mn  Mn847     1.0  0.46875  0.9062499999999998  0.15625000000000003  1.0000
  Mn  Mn848     1.0  0.46875  0.9687499999999998  0.15625000000000003  1.0000
  Mn  Mn849     1.0  0.49999999999999994  0.0  0.12500000000000006  1.0000
  Mn  Mn850     1.0  0.49999999999999994  0.12499999999999997  0.12500000000000006  1.0000
  Mn  Mn851     1.0  0.49999999999999994  0.24999999999999994  0.12500000000000006  1.0000
  Mn  Mn852     1.0  0.49999999999999994  0.37499999999999994  0.12500000000000006  1.0000
  Mn  Mn853     1.0  0.49999999999999994  0.5625  0.12500000000000006  1.0000
  Mn  Mn854     1.0  0.49999999999999994  0.6875  0.12500000000000006  1.0000
  Mn  Mn855     1.0  0.49999999999999994  0.8124999999999998  0.12500000000000006  1.0000
  Mn  Mn856     1.0  0.49999999999999994  0.9374999999999998  0.12500000000000006  1.0000
  Mn  Mn857     1.0  0.53125  0.53125  0.09375000000000004  1.0000
  Mn  Mn858     1.0  0.53125  0.59375  0.09375000000000004  1.0000
  Mn  Mn859     1.0  0.53125  0.65625  0.09375000000000004  1.0000
  Mn  Mn860     1.0  0.53125  0.7187499999999999  0.09375000000000004  1.0000
  Mn  Mn861     1.0  0.53125  0.7812499999999999  0.09375000000000004  1.0000
  Mn  Mn862     1.0  0.53125  0.8437499999999998  0.09375000000000004  1.0000
  Mn  Mn863     1.0  0.53125  0.9062499999999998  0.09375000000000004  1.0000
  Mn  Mn864     1.0  0.53125  0.9687499999999998  0.09375000000000004  1.0000
  Mn  Mn865     1.0  0.5625  0.062499999999999986  0.06250000000000006  1.0000
  Mn  Mn866     1.0  0.5625  0.18749999999999997  0.06250000000000006  1.0000
  Mn  Mn867     1.0  0.5625  0.3125  0.06250000000000006  1.0000
  Mn  Mn868     1.0  0.5625  0.4374999999999999  0.06250000000000006  1.0000
  Mn  Mn869     1.0  0.5625  0.4999999999999999  0.06250000000000006  1.0000
  Mn  Mn870     1.0  0.5625  0.625  0.06250000000000006  1.0000
  Mn  Mn871     1.0  0.5625  0.7499999999999999  0.06250000000000006  1.0000
  Mn  Mn872     1.0  0.5625  0.8749999999999998  0.06250000000000006  1.0000
  Mn  Mn873     1.0  0.59375  0.53125  0.03125000000000005  1.0000
  Mn  Mn874     1.0  0.59375  0.59375  0.03125000000000005  1.0000
  Mn  Mn875     1.0  0.59375  0.65625  0.03125000000000005  1.0000
  Mn  Mn876     1.0  0.59375  0.7187499999999999  0.03125000000000005  1.0000
  Mn  Mn877     1.0  0.59375  0.7812499999999999  0.03125000000000005  1.0000
  Mn  Mn878     1.0  0.59375  0.8437499999999998  0.03125000000000005  1.0000
  Mn  Mn879     1.0  0.59375  0.9062499999999998  0.03125000000000005  1.0000
  Mn  Mn880     1.0  0.59375  0.9687499999999998  0.03125000000000005  1.0000
  Mn  Mn881     1.0  0.0  0.0  0.6875000000000001  1.0000
  Mn  Mn882     1.0  0.0  0.12499999999999997  0.6875000000000001  1.0000
  Mn  Mn883     1.0  0.0  0.24999999999999994  0.6875000000000001  1.0000
  Mn  Mn884     1.0  0.0  0.37499999999999994  0.6875000000000001  1.0000
  Mn  Mn885     1.0  0.0  0.5625  0.6875000000000001  1.0000
  Mn  Mn886     1.0  0.0  0.6875  0.6875000000000001  1.0000
  Mn  Mn887     1.0  0.0  0.8124999999999998  0.6875000000000001  1.0000
  Mn  Mn888     1.0  0.0  0.9374999999999998  0.6875000000000001  1.0000
  Mn  Mn889     1.0  0.03125  0.031249999999999993  0.6562500000000001  1.0000
  Mn  Mn890     1.0  0.03125  0.09374999999999999  0.6562500000000001  1.0000
  Mn  Mn891     1.0  0.03125  0.15625  0.6562500000000001  1.0000
  Mn  Mn892     1.0  0.03125  0.21874999999999994  0.6562500000000001  1.0000
  Mn  Mn893     1.0  0.03125  0.28125  0.6562500000000001  1.0000
  Mn  Mn894     1.0  0.03125  0.34375  0.6562500000000001  1.0000
  Mn  Mn895     1.0  0.03125  0.4062499999999999  0.6562500000000001  1.0000
  Mn  Mn896     1.0  0.03125  0.4687499999999999  0.6562500000000001  1.0000
  Mn  Mn897     1.0  0.0625  0.062499999999999986  0.6250000000000001  1.0000
  Mn  Mn898     1.0  0.0625  0.18749999999999997  0.6250000000000001  1.0000
  Mn  Mn899     1.0  0.0625  0.3125  0.6250000000000001  1.0000
  Mn  Mn900     1.0  0.0625  0.4374999999999999  0.6250000000000001  1.0000
  Mn  Mn901     1.0  0.0625  0.4999999999999999  0.6250000000000001  1.0000
  Mn  Mn902     1.0  0.0625  0.625  0.6250000000000001  1.0000
  Mn  Mn903     1.0  0.0625  0.7499999999999999  0.6250000000000001  1.0000
  Mn  Mn904     1.0  0.0625  0.8749999999999998  0.6250000000000001  1.0000
  Mn  Mn905     1.0  0.09375  0.031249999999999993  0.5937500000000001  1.0000
  Mn  Mn906     1.0  0.09375  0.09374999999999999  0.5937500000000001  1.0000
  Mn  Mn907     1.0  0.09375  0.15625  0.5937500000000001  1.0000
  Mn  Mn908     1.0  0.09375  0.21874999999999994  0.5937500000000001  1.0000
  Mn  Mn909     1.0  0.09375  0.28125  0.5937500000000001  1.0000
  Mn  Mn910     1.0  0.09375  0.34375  0.5937500000000001  1.0000
  Mn  Mn911     1.0  0.09375  0.4062499999999999  0.5937500000000001  1.0000
  Mn  Mn912     1.0  0.09375  0.4687499999999999  0.5937500000000001  1.0000
  Mn  Mn913     1.0  0.125  0.0  0.5625000000000001  1.0000
  Mn  Mn914     1.0  0.125  0.12499999999999997  0.5625000000000001  1.0000
  Mn  Mn915     1.0  0.125  0.24999999999999994  0.5625000000000001  1.0000
  Mn  Mn916     1.0  0.125  0.37499999999999994  0.5625000000000001  1.0000
  Mn  Mn917     1.0  0.125  0.5625  0.5625000000000001  1.0000
  Mn  Mn918     1.0  0.125  0.6875  0.5625000000000001  1.0000
  Mn  Mn919     1.0  0.125  0.8124999999999998  0.5625000000000001  1.0000
  Mn  Mn920     1.0  0.125  0.9374999999999998  0.5625000000000001  1.0000
  Mn  Mn921     1.0  0.15625000000000006  0.031249999999999993  0.53125  1.0000
  Mn  Mn922     1.0  0.15625000000000006  0.09374999999999999  0.53125  1.0000
  Mn  Mn923     1.0  0.15625000000000006  0.15625  0.53125  1.0000
  Mn  Mn924     1.0  0.15625000000000006  0.21874999999999994  0.53125  1.0000
  Mn  Mn925     1.0  0.15625000000000006  0.28125  0.53125  1.0000
  Mn  Mn926     1.0  0.15625000000000006  0.34375  0.53125  1.0000
  Mn  Mn927     1.0  0.15625000000000006  0.4062499999999999  0.53125  1.0000
  Mn  Mn928     1.0  0.15625000000000006  0.4687499999999999  0.53125  1.0000
  Mn  Mn929     1.0  0.1875  0.062499999999999986  0.5  1.0000
  Mn  Mn930     1.0  0.1875  0.18749999999999997  0.5  1.0000
  Mn  Mn931     1.0  0.1875  0.3125  0.5  1.0000
  Mn  Mn932     1.0  0.1875  0.4374999999999999  0.5  1.0000
  Mn  Mn933     1.0  0.1875  0.4999999999999999  0.5  1.0000
  Mn  Mn934     1.0  0.1875  0.625  0.5  1.0000
  Mn  Mn935     1.0  0.1875  0.7499999999999999  0.5  1.0000
  Mn  Mn936     1.0  0.1875  0.8749999999999998  0.5  1.0000
  Mn  Mn937     1.0  0.21875  0.031249999999999993  0.4687499999999999  1.0000
  Mn  Mn938     1.0  0.21875  0.09374999999999999  0.4687499999999999  1.0000
  Mn  Mn939     1.0  0.21875  0.15625  0.4687499999999999  1.0000
  Mn  Mn940     1.0  0.21875  0.21874999999999994  0.4687499999999999  1.0000
  Mn  Mn941     1.0  0.21875  0.28125  0.4687499999999999  1.0000
  Mn  Mn942     1.0  0.21875  0.34375  0.4687499999999999  1.0000
  Mn  Mn943     1.0  0.21875  0.4062499999999999  0.4687499999999999  1.0000
  Mn  Mn944     1.0  0.21875  0.4687499999999999  0.4687499999999999  1.0000
  Mn  Mn945     1.0  0.25  0.0  0.43749999999999994  1.0000
  Mn  Mn946     1.0  0.25  0.12499999999999997  0.43749999999999994  1.0000
  Mn  Mn947     1.0  0.25  0.24999999999999994  0.43749999999999994  1.0000
  Mn  Mn948     1.0  0.25  0.37499999999999994  0.43749999999999994  1.0000
  Mn  Mn949     1.0  0.25  0.5625  0.43749999999999994  1.0000
  Mn  Mn950     1.0  0.25  0.6875  0.43749999999999994  1.0000
  Mn  Mn951     1.0  0.25  0.8124999999999998  0.43749999999999994  1.0000
  Mn  Mn952     1.0  0.25  0.9374999999999998  0.43749999999999994  1.0000
  Mn  Mn953     1.0  0.28125  0.031249999999999993  0.40624999999999994  1.0000
  Mn  Mn954     1.0  0.28125  0.09374999999999999  0.40624999999999994  1.0000
  Mn  Mn955     1.0  0.28125  0.15625  0.40624999999999994  1.0000
  Mn  Mn956     1.0  0.28125  0.21874999999999994  0.40624999999999994  1.0000
  Mn  Mn957     1.0  0.28125  0.28125  0.40624999999999994  1.0000
  Mn  Mn958     1.0  0.28125  0.34375  0.40624999999999994  1.0000
  Mn  Mn959     1.0  0.28125  0.4062499999999999  0.40624999999999994  1.0000
  Mn  Mn960     1.0  0.28125  0.4687499999999999  0.40624999999999994  1.0000
  Mn  Mn961     1.0  0.3125000000000001  0.062499999999999986  0.37499999999999994  1.0000
  Mn  Mn962     1.0  0.3125000000000001  0.18749999999999997  0.37499999999999994  1.0000
  Mn  Mn963     1.0  0.3125000000000001  0.3125  0.37499999999999994  1.0000
  Mn  Mn964     1.0  0.3125000000000001  0.4374999999999999  0.37499999999999994  1.0000
  Mn  Mn965     1.0  0.3125000000000001  0.4999999999999999  0.37499999999999994  1.0000
  Mn  Mn966     1.0  0.3125000000000001  0.625  0.37499999999999994  1.0000
  Mn  Mn967     1.0  0.3125000000000001  0.7499999999999999  0.37499999999999994  1.0000
  Mn  Mn968     1.0  0.3125000000000001  0.8749999999999998  0.37499999999999994  1.0000
  Mn  Mn969     1.0  0.3437500000000001  0.031249999999999993  0.34375000000000006  1.0000
  Mn  Mn970     1.0  0.3437500000000001  0.09374999999999999  0.34375000000000006  1.0000
  Mn  Mn971     1.0  0.3437500000000001  0.15625  0.34375000000000006  1.0000
  Mn  Mn972     1.0  0.3437500000000001  0.21874999999999994  0.34375000000000006  1.0000
  Mn  Mn973     1.0  0.3437500000000001  0.28125  0.34375000000000006  1.0000
  Mn  Mn974     1.0  0.3437500000000001  0.34375  0.34375000000000006  1.0000
  Mn  Mn975     1.0  0.3437500000000001  0.4062499999999999  0.34375000000000006  1.0000
  Mn  Mn976     1.0  0.3437500000000001  0.4687499999999999  0.34375000000000006  1.0000
  Mn  Mn977     1.0  0.375  0.0  0.31250000000000006  1.0000
  Mn  Mn978     1.0  0.375  0.12499999999999997  0.31250000000000006  1.0000
  Mn  Mn979     1.0  0.375  0.24999999999999994  0.31250000000000006  1.0000
  Mn  Mn980     1.0  0.375  0.37499999999999994  0.31250000000000006  1.0000
  Mn  Mn981     1.0  0.375  0.5625  0.31250000000000006  1.0000
  Mn  Mn982     1.0  0.375  0.6875  0.31250000000000006  1.0000
  Mn  Mn983     1.0  0.375  0.8124999999999998  0.31250000000000006  1.0000
  Mn  Mn984     1.0  0.375  0.9374999999999998  0.31250000000000006  1.0000
  Mn  Mn985     1.0  0.40625  0.031249999999999993  0.2812499999999999  1.0000
  Mn  Mn986     1.0  0.40625  0.09374999999999999  0.2812499999999999  1.0000
  Mn  Mn987     1.0  0.40625  0.15625  0.2812499999999999  1.0000
  Mn  Mn988     1.0  0.40625  0.21874999999999994  0.2812499999999999  1.0000
  Mn  Mn989     1.0  0.40625  0.28125  0.2812499999999999  1.0000
  Mn  Mn990     1.0  0.40625  0.34375  0.2812499999999999  1.0000
  Mn  Mn991     1.0  0.40625  0.4062499999999999  0.2812499999999999  1.0000
  Mn  Mn992     1.0  0.40625  0.4687499999999999  0.2812499999999999  1.0000
  Mn  Mn993     1.0  0.4375  0.062499999999999986  0.25  1.0000
  Mn  Mn994     1.0  0.4375  0.18749999999999997  0.25  1.0000
  Mn  Mn995     1.0  0.4375  0.3125  0.25  1.0000
  Mn  Mn996     1.0  0.4375  0.4374999999999999  0.25  1.0000
  Mn  Mn997     1.0  0.4375  0.4999999999999999  0.25  1.0000
  Mn  Mn998     1.0  0.4375  0.625  0.25  1.0000
  Mn  Mn999     1.0  0.4375  0.7499999999999999  0.25  1.0000
  Mn  Mn1000    1.0  0.4375  0.8749999999999998  0.25  1.0000
  Mn  Mn1001    1.0  0.46875  0.031249999999999993  0.21875000000000006  1.0000
  Mn  Mn1002    1.0  0.46875  0.09374999999999999  0.21875000000000006  1.0000
  Mn  Mn1003    1.0  0.46875  0.15625  0.21875000000000006  1.0000
  Mn  Mn1004    1.0  0.46875  0.21874999999999994  0.21875000000000006  1.0000
  Mn  Mn1005    1.0  0.46875  0.28125  0.21875000000000006  1.0000
  Mn  Mn1006    1.0  0.46875  0.34375  0.21875000000000006  1.0000
  Mn  Mn1007    1.0  0.46875  0.4062499999999999  0.21875000000000006  1.0000
  Mn  Mn1008    1.0  0.46875  0.4687499999999999  0.21875000000000006  1.0000
  Mn  Mn1009    1.0  0.49999999999999994  0.0  0.18750000000000006  1.0000
  Mn  Mn1010    1.0  0.49999999999999994  0.12499999999999997  0.18750000000000006  1.0000
  Mn  Mn1011    1.0  0.49999999999999994  0.24999999999999994  0.18750000000000006  1.0000
  Mn  Mn1012    1.0  0.49999999999999994  0.37499999999999994  0.18750000000000006  1.0000
  Mn  Mn1013    1.0  0.49999999999999994  0.5625  0.18750000000000006  1.0000
  Mn  Mn1014    1.0  0.49999999999999994  0.6875  0.18750000000000006  1.0000
  Mn  Mn1015    1.0  0.49999999999999994  0.8124999999999998  0.18750000000000006  1.0000
  Mn  Mn1016    1.0  0.49999999999999994  0.9374999999999998  0.18750000000000006  1.0000
  Mn  Mn1017    1.0  0.53125  0.031249999999999993  0.15625000000000003  1.0000
  Mn  Mn1018    1.0  0.53125  0.09374999999999999  0.15625000000000003  1.0000
  Mn  Mn1019    1.0  0.53125  0.15625  0.15625000000000003  1.0000
  Mn  Mn1020    1.0  0.53125  0.21874999999999994  0.15625000000000003  1.0000
  Mn  Mn1021    1.0  0.53125  0.28125  0.15625000000000003  1.0000
  Mn  Mn1022    1.0  0.53125  0.34375  0.15625000000000003  1.0000
  Mn  Mn1023    1.0  0.53125  0.4062499999999999  0.15625000000000003  1.0000
  Mn  Mn1024    1.0  0.53125  0.4687499999999999  0.15625000000000003  1.0000
  Mn  Mn1025    1.0  0.5625  0.062499999999999986  0.12500000000000006  1.0000
  Mn  Mn1026    1.0  0.5625  0.18749999999999997  0.12500000000000006  1.0000
  Mn  Mn1027    1.0  0.5625  0.3125  0.12500000000000006  1.0000
  Mn  Mn1028    1.0  0.5625  0.4374999999999999  0.12500000000000006  1.0000
  Mn  Mn1029    1.0  0.5625  0.4999999999999999  0.12500000000000006  1.0000
  Mn  Mn1030    1.0  0.5625  0.625  0.12500000000000006  1.0000
  Mn  Mn1031    1.0  0.5625  0.7499999999999999  0.12500000000000006  1.0000
  Mn  Mn1032    1.0  0.5625  0.8749999999999998  0.12500000000000006  1.0000
  Mn  Mn1033    1.0  0.59375  0.031249999999999993  0.09375000000000004  1.0000
  Mn  Mn1034    1.0  0.59375  0.09374999999999999  0.09375000000000004  1.0000
  Mn  Mn1035    1.0  0.59375  0.15625  0.09375000000000004  1.0000
  Mn  Mn1036    1.0  0.59375  0.21874999999999994  0.09375000000000004  1.0000
  Mn  Mn1037    1.0  0.59375  0.28125  0.09375000000000004  1.0000
  Mn  Mn1038    1.0  0.59375  0.34375  0.09375000000000004  1.0000
  Mn  Mn1039    1.0  0.59375  0.4062499999999999  0.09375000000000004  1.0000
  Mn  Mn1040    1.0  0.59375  0.4687499999999999  0.09375000000000004  1.0000
  Mn  Mn1041    1.0  0.6250000000000002  0.0  0.06250000000000006  1.0000
  Mn  Mn1042    1.0  0.6250000000000002  0.12499999999999997  0.06250000000000006  1.0000
  Mn  Mn1043    1.0  0.6250000000000002  0.24999999999999994  0.06250000000000006  1.0000
  Mn  Mn1044    1.0  0.6250000000000002  0.37499999999999994  0.06250000000000006  1.0000
  Mn  Mn1045    1.0  0.6250000000000002  0.5625  0.06250000000000006  1.0000
  Mn  Mn1046    1.0  0.6250000000000002  0.6875  0.06250000000000006  1.0000
  Mn  Mn1047    1.0  0.6250000000000002  0.8124999999999998  0.06250000000000006  1.0000
  Mn  Mn1048    1.0  0.6250000000000002  0.9374999999999998  0.06250000000000006  1.0000
  Mn  Mn1049    1.0  0.65625  0.031249999999999993  0.03125000000000005  1.0000
  Mn  Mn1050    1.0  0.65625  0.09374999999999999  0.03125000000000005  1.0000
  Mn  Mn1051    1.0  0.65625  0.15625  0.03125000000000005  1.0000
  Mn  Mn1052    1.0  0.65625  0.21874999999999994  0.03125000000000005  1.0000
  Mn  Mn1053    1.0  0.65625  0.28125  0.03125000000000005  1.0000
  Mn  Mn1054    1.0  0.65625  0.34375  0.03125000000000005  1.0000
  Mn  Mn1055    1.0  0.65625  0.4062499999999999  0.03125000000000005  1.0000
  Mn  Mn1056    1.0  0.65625  0.4687499999999999  0.03125000000000005  1.0000
  Mn  Mn1057    1.0  0.0  0.0  0.75  1.0000
  Mn  Mn1058    1.0  0.0  0.12499999999999997  0.75  1.0000
  Mn  Mn1059    1.0  0.0  0.24999999999999994  0.75  1.0000
  Mn  Mn1060    1.0  0.0  0.37499999999999994  0.75  1.0000
  Mn  Mn1061    1.0  0.0  0.5625  0.75  1.0000
  Mn  Mn1062    1.0  0.0  0.6875  0.75  1.0000
  Mn  Mn1063    1.0  0.0  0.8124999999999998  0.75  1.0000
  Mn  Mn1064    1.0  0.0  0.9374999999999998  0.75  1.0000
  Mn  Mn1065    1.0  0.03125  0.53125  0.71875  1.0000
  Mn  Mn1066    1.0  0.03125  0.59375  0.71875  1.0000
  Mn  Mn1067    1.0  0.03125  0.65625  0.71875  1.0000
  Mn  Mn1068    1.0  0.03125  0.7187499999999999  0.71875  1.0000
  Mn  Mn1069    1.0  0.03125  0.7812499999999999  0.71875  1.0000
  Mn  Mn1070    1.0  0.03125  0.8437499999999998  0.71875  1.0000
  Mn  Mn1071    1.0  0.03125  0.9062499999999998  0.71875  1.0000
  Mn  Mn1072    1.0  0.03125  0.9687499999999998  0.71875  1.0000
  Mn  Mn1073    1.0  0.0625  0.062499999999999986  0.6875000000000001  1.0000
  Mn  Mn1074    1.0  0.0625  0.18749999999999997  0.6875000000000001  1.0000
  Mn  Mn1075    1.0  0.0625  0.3125  0.6875000000000001  1.0000
  Mn  Mn1076    1.0  0.0625  0.4374999999999999  0.6875000000000001  1.0000
  Mn  Mn1077    1.0  0.0625  0.4999999999999999  0.6875000000000001  1.0000
  Mn  Mn1078    1.0  0.0625  0.625  0.6875000000000001  1.0000
  Mn  Mn1079    1.0  0.0625  0.7499999999999999  0.6875000000000001  1.0000
  Mn  Mn1080    1.0  0.0625  0.8749999999999998  0.6875000000000001  1.0000
  Mn  Mn1081    1.0  0.09375  0.53125  0.6562500000000001  1.0000
  Mn  Mn1082    1.0  0.09375  0.59375  0.6562500000000001  1.0000
  Mn  Mn1083    1.0  0.09375  0.65625  0.6562500000000001  1.0000
  Mn  Mn1084    1.0  0.09375  0.7187499999999999  0.6562500000000001  1.0000
  Mn  Mn1085    1.0  0.09375  0.7812499999999999  0.6562500000000001  1.0000
  Mn  Mn1086    1.0  0.09375  0.8437499999999998  0.6562500000000001  1.0000
  Mn  Mn1087    1.0  0.09375  0.9062499999999998  0.6562500000000001  1.0000
  Mn  Mn1088    1.0  0.09375  0.9687499999999998  0.6562500000000001  1.0000
  Mn  Mn1089    1.0  0.125  0.0  0.6250000000000001  1.0000
  Mn  Mn1090    1.0  0.125  0.12499999999999997  0.6250000000000001  1.0000
  Mn  Mn1091    1.0  0.125  0.24999999999999994  0.6250000000000001  1.0000
  Mn  Mn1092    1.0  0.125  0.37499999999999994  0.6250000000000001  1.0000
  Mn  Mn1093    1.0  0.125  0.5625  0.6250000000000001  1.0000
  Mn  Mn1094    1.0  0.125  0.6875  0.6250000000000001  1.0000
  Mn  Mn1095    1.0  0.125  0.8124999999999998  0.6250000000000001  1.0000
  Mn  Mn1096    1.0  0.125  0.9374999999999998  0.6250000000000001  1.0000
  Mn  Mn1097    1.0  0.15625000000000006  0.53125  0.5937500000000001  1.0000
  Mn  Mn1098    1.0  0.15625000000000006  0.59375  0.5937500000000001  1.0000
  Mn  Mn1099    1.0  0.15625000000000006  0.65625  0.5937500000000001  1.0000
  Mn  Mn1100    1.0  0.15625000000000006  0.7187499999999999  0.5937500000000001  1.0000
  Mn  Mn1101    1.0  0.15625000000000006  0.7812499999999999  0.5937500000000001  1.0000
  Mn  Mn1102    1.0  0.15625000000000006  0.8437499999999998  0.5937500000000001  1.0000
  Mn  Mn1103    1.0  0.15625000000000006  0.9062499999999998  0.5937500000000001  1.0000
  Mn  Mn1104    1.0  0.15625000000000006  0.9687499999999998  0.5937500000000001  1.0000
  Mn  Mn1105    1.0  0.1875  0.062499999999999986  0.5625000000000001  1.0000
  Mn  Mn1106    1.0  0.1875  0.18749999999999997  0.5625000000000001  1.0000
  Mn  Mn1107    1.0  0.1875  0.3125  0.5625000000000001  1.0000
  Mn  Mn1108    1.0  0.1875  0.4374999999999999  0.5625000000000001  1.0000
  Mn  Mn1109    1.0  0.1875  0.4999999999999999  0.5625000000000001  1.0000
  Mn  Mn1110    1.0  0.1875  0.625  0.5625000000000001  1.0000
  Mn  Mn1111    1.0  0.1875  0.7499999999999999  0.5625000000000001  1.0000
  Mn  Mn1112    1.0  0.1875  0.8749999999999998  0.5625000000000001  1.0000
  Mn  Mn1113    1.0  0.21875  0.53125  0.53125  1.0000
  Mn  Mn1114    1.0  0.21875  0.59375  0.53125  1.0000
  Mn  Mn1115    1.0  0.21875  0.65625  0.53125  1.0000
  Mn  Mn1116    1.0  0.21875  0.7187499999999999  0.53125  1.0000
  Mn  Mn1117    1.0  0.21875  0.7812499999999999  0.53125  1.0000
  Mn  Mn1118    1.0  0.21875  0.8437499999999998  0.53125  1.0000
  Mn  Mn1119    1.0  0.21875  0.9062499999999998  0.53125  1.0000
  Mn  Mn1120    1.0  0.21875  0.9687499999999998  0.53125  1.0000
  Mn  Mn1121    1.0  0.25  0.0  0.5  1.0000
  Mn  Mn1122    1.0  0.25  0.12499999999999997  0.5  1.0000
  Mn  Mn1123    1.0  0.25  0.24999999999999994  0.5  1.0000
  Mn  Mn1124    1.0  0.25  0.37499999999999994  0.5  1.0000
  Mn  Mn1125    1.0  0.25  0.5625  0.5  1.0000
  Mn  Mn1126    1.0  0.25  0.6875  0.5  1.0000
  Mn  Mn1127    1.0  0.25  0.8124999999999998  0.5  1.0000
  Mn  Mn1128    1.0  0.25  0.9374999999999998  0.5  1.0000
  Mn  Mn1129    1.0  0.28125  0.53125  0.4687499999999999  1.0000
  Mn  Mn1130    1.0  0.28125  0.59375  0.4687499999999999  1.0000
  Mn  Mn1131    1.0  0.28125  0.65625  0.4687499999999999  1.0000
  Mn  Mn1132    1.0  0.28125  0.7187499999999999  0.4687499999999999  1.0000
  Mn  Mn1133    1.0  0.28125  0.7812499999999999  0.4687499999999999  1.0000
  Mn  Mn1134    1.0  0.28125  0.8437499999999998  0.4687499999999999  1.0000
  Mn  Mn1135    1.0  0.28125  0.9062499999999998  0.4687499999999999  1.0000
  Mn  Mn1136    1.0  0.28125  0.9687499999999998  0.4687499999999999  1.0000
  Mn  Mn1137    1.0  0.3125000000000001  0.062499999999999986  0.43749999999999994  1.0000
  Mn  Mn1138    1.0  0.3125000000000001  0.18749999999999997  0.43749999999999994  1.0000
  Mn  Mn1139    1.0  0.3125000000000001  0.3125  0.43749999999999994  1.0000
  Mn  Mn1140    1.0  0.3125000000000001  0.4374999999999999  0.43749999999999994  1.0000
  Mn  Mn1141    1.0  0.3125000000000001  0.4999999999999999  0.43749999999999994  1.0000
  Mn  Mn1142    1.0  0.3125000000000001  0.625  0.43749999999999994  1.0000
  Mn  Mn1143    1.0  0.3125000000000001  0.7499999999999999  0.43749999999999994  1.0000
  Mn  Mn1144    1.0  0.3125000000000001  0.8749999999999998  0.43749999999999994  1.0000
  Mn  Mn1145    1.0  0.3437500000000001  0.53125  0.40624999999999994  1.0000
  Mn  Mn1146    1.0  0.3437500000000001  0.59375  0.40624999999999994  1.0000
  Mn  Mn1147    1.0  0.3437500000000001  0.65625  0.40624999999999994  1.0000
  Mn  Mn1148    1.0  0.3437500000000001  0.7187499999999999  0.40624999999999994  1.0000
  Mn  Mn1149    1.0  0.3437500000000001  0.7812499999999999  0.40624999999999994  1.0000
  Mn  Mn1150    1.0  0.3437500000000001  0.8437499999999998  0.40624999999999994  1.0000
  Mn  Mn1151    1.0  0.3437500000000001  0.9062499999999998  0.40624999999999994  1.0000
  Mn  Mn1152    1.0  0.3437500000000001  0.9687499999999998  0.40624999999999994  1.0000
  Mn  Mn1153    1.0  0.375  0.0  0.37499999999999994  1.0000
  Mn  Mn1154    1.0  0.375  0.12499999999999997  0.37499999999999994  1.0000
  Mn  Mn1155    1.0  0.375  0.24999999999999994  0.37499999999999994  1.0000
  Mn  Mn1156    1.0  0.375  0.37499999999999994  0.37499999999999994  1.0000
  Mn  Mn1157    1.0  0.375  0.5625  0.37499999999999994  1.0000
  Mn  Mn1158    1.0  0.375  0.6875  0.37499999999999994  1.0000
  Mn  Mn1159    1.0  0.375  0.8124999999999998  0.37499999999999994  1.0000
  Mn  Mn1160    1.0  0.375  0.9374999999999998  0.37499999999999994  1.0000
  Mn  Mn1161    1.0  0.40625  0.53125  0.34375000000000006  1.0000
  Mn  Mn1162    1.0  0.40625  0.59375  0.34375000000000006  1.0000
  Mn  Mn1163    1.0  0.40625  0.65625  0.34375000000000006  1.0000
  Mn  Mn1164    1.0  0.40625  0.7187499999999999  0.34375000000000006  1.0000
  Mn  Mn1165    1.0  0.40625  0.7812499999999999  0.34375000000000006  1.0000
  Mn  Mn1166    1.0  0.40625  0.8437499999999998  0.34375000000000006  1.0000
  Mn  Mn1167    1.0  0.40625  0.9062499999999998  0.34375000000000006  1.0000
  Mn  Mn1168    1.0  0.40625  0.9687499999999998  0.34375000000000006  1.0000
  Mn  Mn1169    1.0  0.4375  0.062499999999999986  0.31250000000000006  1.0000
  Mn  Mn1170    1.0  0.4375  0.18749999999999997  0.31250000000000006  1.0000
  Mn  Mn1171    1.0  0.4375  0.3125  0.31250000000000006  1.0000
  Mn  Mn1172    1.0  0.4375  0.4374999999999999  0.31250000000000006  1.0000
  Mn  Mn1173    1.0  0.4375  0.4999999999999999  0.31250000000000006  1.0000
  Mn  Mn1174    1.0  0.4375  0.625  0.31250000000000006  1.0000
  Mn  Mn1175    1.0  0.4375  0.7499999999999999  0.31250000000000006  1.0000
  Mn  Mn1176    1.0  0.4375  0.8749999999999998  0.31250000000000006  1.0000
  Mn  Mn1177    1.0  0.46875  0.53125  0.2812499999999999  1.0000
  Mn  Mn1178    1.0  0.46875  0.59375  0.2812499999999999  1.0000
  Mn  Mn1179    1.0  0.46875  0.65625  0.2812499999999999  1.0000
  Mn  Mn1180    1.0  0.46875  0.7187499999999999  0.2812499999999999  1.0000
  Mn  Mn1181    1.0  0.46875  0.7812499999999999  0.2812499999999999  1.0000
  Mn  Mn1182    1.0  0.46875  0.8437499999999998  0.2812499999999999  1.0000
  Mn  Mn1183    1.0  0.46875  0.9062499999999998  0.2812499999999999  1.0000
  Mn  Mn1184    1.0  0.46875  0.9687499999999998  0.2812499999999999  1.0000
  Mn  Mn1185    1.0  0.49999999999999994  0.0  0.25  1.0000
  Mn  Mn1186    1.0  0.49999999999999994  0.12499999999999997  0.25  1.0000
  Mn  Mn1187    1.0  0.49999999999999994  0.24999999999999994  0.25  1.0000
  Mn  Mn1188    1.0  0.49999999999999994  0.37499999999999994  0.25  1.0000
  Mn  Mn1189    1.0  0.49999999999999994  0.5625  0.25  1.0000
  Mn  Mn1190    1.0  0.49999999999999994  0.6875  0.25  1.0000
  Mn  Mn1191    1.0  0.49999999999999994  0.8124999999999998  0.25  1.0000
  Mn  Mn1192    1.0  0.49999999999999994  0.9374999999999998  0.25  1.0000
  Mn  Mn1193    1.0  0.53125  0.53125  0.21875000000000006  1.0000
  Mn  Mn1194    1.0  0.53125  0.59375  0.21875000000000006  1.0000
  Mn  Mn1195    1.0  0.53125  0.65625  0.21875000000000006  1.0000
  Mn  Mn1196    1.0  0.53125  0.7187499999999999  0.21875000000000006  1.0000
  Mn  Mn1197    1.0  0.53125  0.7812499999999999  0.21875000000000006  1.0000
  Mn  Mn1198    1.0  0.53125  0.8437499999999998  0.21875000000000006  1.0000
  Mn  Mn1199    1.0  0.53125  0.9062499999999998  0.21875000000000006  1.0000
  Mn  Mn1200    1.0  0.53125  0.9687499999999998  0.21875000000000006  1.0000
  Mn  Mn1201    1.0  0.5625  0.062499999999999986  0.18750000000000006  1.0000
  Mn  Mn1202    1.0  0.5625  0.18749999999999997  0.18750000000000006  1.0000
  Mn  Mn1203    1.0  0.5625  0.3125  0.18750000000000006  1.0000
  Mn  Mn1204    1.0  0.5625  0.4374999999999999  0.18750000000000006  1.0000
  Mn  Mn1205    1.0  0.5625  0.4999999999999999  0.18750000000000006  1.0000
  Mn  Mn1206    1.0  0.5625  0.625  0.18750000000000006  1.0000
  Mn  Mn1207    1.0  0.5625  0.7499999999999999  0.18750000000000006  1.0000
  Mn  Mn1208    1.0  0.5625  0.8749999999999998  0.18750000000000006  1.0000
  Mn  Mn1209    1.0  0.59375  0.53125  0.15625000000000003  1.0000
  Mn  Mn1210    1.0  0.59375  0.59375  0.15625000000000003  1.0000
  Mn  Mn1211    1.0  0.59375  0.65625  0.15625000000000003  1.0000
  Mn  Mn1212    1.0  0.59375  0.7187499999999999  0.15625000000000003  1.0000
  Mn  Mn1213    1.0  0.59375  0.7812499999999999  0.15625000000000003  1.0000
  Mn  Mn1214    1.0  0.59375  0.8437499999999998  0.15625000000000003  1.0000
  Mn  Mn1215    1.0  0.59375  0.9062499999999998  0.15625000000000003  1.0000
  Mn  Mn1216    1.0  0.59375  0.9687499999999998  0.15625000000000003  1.0000
  Mn  Mn1217    1.0  0.6250000000000002  0.0  0.12500000000000006  1.0000
  Mn  Mn1218    1.0  0.6250000000000002  0.12499999999999997  0.12500000000000006  1.0000
  Mn  Mn1219    1.0  0.6250000000000002  0.24999999999999994  0.12500000000000006  1.0000
  Mn  Mn1220    1.0  0.6250000000000002  0.37499999999999994  0.12500000000000006  1.0000
  Mn  Mn1221    1.0  0.6250000000000002  0.5625  0.12500000000000006  1.0000
  Mn  Mn1222    1.0  0.6250000000000002  0.6875  0.12500000000000006  1.0000
  Mn  Mn1223    1.0  0.6250000000000002  0.8124999999999998  0.12500000000000006  1.0000
  Mn  Mn1224    1.0  0.6250000000000002  0.9374999999999998  0.12500000000000006  1.0000
  Mn  Mn1225    1.0  0.65625  0.53125  0.09375000000000004  1.0000
  Mn  Mn1226    1.0  0.65625  0.59375  0.09375000000000004  1.0000
  Mn  Mn1227    1.0  0.65625  0.65625  0.09375000000000004  1.0000
  Mn  Mn1228    1.0  0.65625  0.7187499999999999  0.09375000000000004  1.0000
  Mn  Mn1229    1.0  0.65625  0.7812499999999999  0.09375000000000004  1.0000
  Mn  Mn1230    1.0  0.65625  0.8437499999999998  0.09375000000000004  1.0000
  Mn  Mn1231    1.0  0.65625  0.9062499999999998  0.09375000000000004  1.0000
  Mn  Mn1232    1.0  0.65625  0.9687499999999998  0.09375000000000004  1.0000
  Mn  Mn1233    1.0  0.6875000000000002  0.062499999999999986  0.06250000000000006  1.0000
  Mn  Mn1234    1.0  0.6875000000000002  0.18749999999999997  0.06250000000000006  1.0000
  Mn  Mn1235    1.0  0.6875000000000002  0.3125  0.06250000000000006  1.0000
  Mn  Mn1236    1.0  0.6875000000000002  0.4374999999999999  0.06250000000000006  1.0000
  Mn  Mn1237    1.0  0.6875000000000002  0.4999999999999999  0.06250000000000006  1.0000
  Mn  Mn1238    1.0  0.6875000000000002  0.625  0.06250000000000006  1.0000
  Mn  Mn1239    1.0  0.6875000000000002  0.7499999999999999  0.06250000000000006  1.0000
  Mn  Mn1240    1.0  0.6875000000000002  0.8749999999999998  0.06250000000000006  1.0000
  Mn  Mn1241    1.0  0.71875  0.53125  0.03125000000000005  1.0000
  Mn  Mn1242    1.0  0.71875  0.59375  0.03125000000000005  1.0000
  Mn  Mn1243    1.0  0.71875  0.65625  0.03125000000000005  1.0000
  Mn  Mn1244    1.0  0.71875  0.7187499999999999  0.03125000000000005  1.0000
  Mn  Mn1245    1.0  0.71875  0.7812499999999999  0.03125000000000005  1.0000
  Mn  Mn1246    1.0  0.71875  0.8437499999999998  0.03125000000000005  1.0000
  Mn  Mn1247    1.0  0.71875  0.9062499999999998  0.03125000000000005  1.0000
  Mn  Mn1248    1.0  0.71875  0.9687499999999998  0.03125000000000005  1.0000
  Mn  Mn1249    1.0  0.0  0.0  0.8125  1.0000
  Mn  Mn1250    1.0  0.0  0.12499999999999997  0.8125  1.0000
  Mn  Mn1251    1.0  0.0  0.24999999999999994  0.8125  1.0000
  Mn  Mn1252    1.0  0.0  0.37499999999999994  0.8125  1.0000
  Mn  Mn1253    1.0  0.0  0.5625  0.8125  1.0000
  Mn  Mn1254    1.0  0.0  0.6875  0.8125  1.0000
  Mn  Mn1255    1.0  0.0  0.8124999999999998  0.8125  1.0000
  Mn  Mn1256    1.0  0.0  0.9374999999999998  0.8125  1.0000
  Mn  Mn1257    1.0  0.03125  0.031249999999999993  0.78125  1.0000
  Mn  Mn1258    1.0  0.03125  0.09374999999999999  0.78125  1.0000
  Mn  Mn1259    1.0  0.03125  0.15625  0.78125  1.0000
  Mn  Mn1260    1.0  0.03125  0.21874999999999994  0.78125  1.0000
  Mn  Mn1261    1.0  0.03125  0.28125  0.78125  1.0000
  Mn  Mn1262    1.0  0.03125  0.34375  0.78125  1.0000
  Mn  Mn1263    1.0  0.03125  0.4062499999999999  0.78125  1.0000
  Mn  Mn1264    1.0  0.03125  0.4687499999999999  0.78125  1.0000
  Mn  Mn1265    1.0  0.0625  0.062499999999999986  0.75  1.0000
  Mn  Mn1266    1.0  0.0625  0.18749999999999997  0.75  1.0000
  Mn  Mn1267    1.0  0.0625  0.3125  0.75  1.0000
  Mn  Mn1268    1.0  0.0625  0.4374999999999999  0.75  1.0000
  Mn  Mn1269    1.0  0.0625  0.4999999999999999  0.75  1.0000
  Mn  Mn1270    1.0  0.0625  0.625  0.75  1.0000
  Mn  Mn1271    1.0  0.0625  0.7499999999999999  0.75  1.0000
  Mn  Mn1272    1.0  0.0625  0.8749999999999998  0.75  1.0000
  Mn  Mn1273    1.0  0.09375  0.031249999999999993  0.71875  1.0000
  Mn  Mn1274    1.0  0.09375  0.09374999999999999  0.71875  1.0000
  Mn  Mn1275    1.0  0.09375  0.15625  0.71875  1.0000
  Mn  Mn1276    1.0  0.09375  0.21874999999999994  0.71875  1.0000
  Mn  Mn1277    1.0  0.09375  0.28125  0.71875  1.0000
  Mn  Mn1278    1.0  0.09375  0.34375  0.71875  1.0000
  Mn  Mn1279    1.0  0.09375  0.4062499999999999  0.71875  1.0000
  Mn  Mn1280    1.0  0.09375  0.4687499999999999  0.71875  1.0000
  Mn  Mn1281    1.0  0.125  0.0  0.6875000000000001  1.0000
  Mn  Mn1282    1.0  0.125  0.12499999999999997  0.6875000000000001  1.0000
  Mn  Mn1283    1.0  0.125  0.24999999999999994  0.6875000000000001  1.0000
  Mn  Mn1284    1.0  0.125  0.37499999999999994  0.6875000000000001  1.0000
  Mn  Mn1285    1.0  0.125  0.5625  0.6875000000000001  1.0000
  Mn  Mn1286    1.0  0.125  0.6875  0.6875000000000001  1.0000
  Mn  Mn1287    1.0  0.125  0.8124999999999998  0.6875000000000001  1.0000
  Mn  Mn1288    1.0  0.125  0.9374999999999998  0.6875000000000001  1.0000
  Mn  Mn1289    1.0  0.15625000000000006  0.031249999999999993  0.6562500000000001  1.0000
  Mn  Mn1290    1.0  0.15625000000000006  0.09374999999999999  0.6562500000000001  1.0000
  Mn  Mn1291    1.0  0.15625000000000006  0.15625  0.6562500000000001  1.0000
  Mn  Mn1292    1.0  0.15625000000000006  0.21874999999999994  0.6562500000000001  1.0000
  Mn  Mn1293    1.0  0.15625000000000006  0.28125  0.6562500000000001  1.0000
  Mn  Mn1294    1.0  0.15625000000000006  0.34375  0.6562500000000001  1.0000
  Mn  Mn1295    1.0  0.15625000000000006  0.4062499999999999  0.6562500000000001  1.0000
  Mn  Mn1296    1.0  0.15625000000000006  0.4687499999999999  0.6562500000000001  1.0000
  Mn  Mn1297    1.0  0.1875  0.062499999999999986  0.6250000000000001  1.0000
  Mn  Mn1298    1.0  0.1875  0.18749999999999997  0.6250000000000001  1.0000
  Mn  Mn1299    1.0  0.1875  0.3125  0.6250000000000001  1.0000
  Mn  Mn1300    1.0  0.1875  0.4374999999999999  0.6250000000000001  1.0000
  Mn  Mn1301    1.0  0.1875  0.4999999999999999  0.6250000000000001  1.0000
  Mn  Mn1302    1.0  0.1875  0.625  0.6250000000000001  1.0000
  Mn  Mn1303    1.0  0.1875  0.7499999999999999  0.6250000000000001  1.0000
  Mn  Mn1304    1.0  0.1875  0.8749999999999998  0.6250000000000001  1.0000
  Mn  Mn1305    1.0  0.21875  0.031249999999999993  0.5937500000000001  1.0000
  Mn  Mn1306    1.0  0.21875  0.09374999999999999  0.5937500000000001  1.0000
  Mn  Mn1307    1.0  0.21875  0.15625  0.5937500000000001  1.0000
  Mn  Mn1308    1.0  0.21875  0.21874999999999994  0.5937500000000001  1.0000
  Mn  Mn1309    1.0  0.21875  0.28125  0.5937500000000001  1.0000
  Mn  Mn1310    1.0  0.21875  0.34375  0.5937500000000001  1.0000
  Mn  Mn1311    1.0  0.21875  0.4062499999999999  0.5937500000000001  1.0000
  Mn  Mn1312    1.0  0.21875  0.4687499999999999  0.5937500000000001  1.0000
  Mn  Mn1313    1.0  0.25  0.0  0.5625000000000001  1.0000
  Mn  Mn1314    1.0  0.25  0.12499999999999997  0.5625000000000001  1.0000
  Mn  Mn1315    1.0  0.25  0.24999999999999994  0.5625000000000001  1.0000
  Mn  Mn1316    1.0  0.25  0.37499999999999994  0.5625000000000001  1.0000
  Mn  Mn1317    1.0  0.25  0.5625  0.5625000000000001  1.0000
  Mn  Mn1318    1.0  0.25  0.6875  0.5625000000000001  1.0000
  Mn  Mn1319    1.0  0.25  0.8124999999999998  0.5625000000000001  1.0000
  Mn  Mn1320    1.0  0.25  0.9374999999999998  0.5625000000000001  1.0000
  Mn  Mn1321    1.0  0.28125  0.031249999999999993  0.53125  1.0000
  Mn  Mn1322    1.0  0.28125  0.09374999999999999  0.53125  1.0000
  Mn  Mn1323    1.0  0.28125  0.15625  0.53125  1.0000
  Mn  Mn1324    1.0  0.28125  0.21874999999999994  0.53125  1.0000
  Mn  Mn1325    1.0  0.28125  0.28125  0.53125  1.0000
  Mn  Mn1326    1.0  0.28125  0.34375  0.53125  1.0000
  Mn  Mn1327    1.0  0.28125  0.4062499999999999  0.53125  1.0000
  Mn  Mn1328    1.0  0.28125  0.4687499999999999  0.53125  1.0000
  Mn  Mn1329    1.0  0.3125000000000001  0.062499999999999986  0.5  1.0000
  Mn  Mn1330    1.0  0.3125000000000001  0.18749999999999997  0.5  1.0000
  Mn  Mn1331    1.0  0.3125000000000001  0.3125  0.5  1.0000
  Mn  Mn1332    1.0  0.3125000000000001  0.4374999999999999  0.5  1.0000
  Mn  Mn1333    1.0  0.3125000000000001  0.4999999999999999  0.5  1.0000
  Mn  Mn1334    1.0  0.3125000000000001  0.625  0.5  1.0000
  Mn  Mn1335    1.0  0.3125000000000001  0.7499999999999999  0.5  1.0000
  Mn  Mn1336    1.0  0.3125000000000001  0.8749999999999998  0.5  1.0000
  Mn  Mn1337    1.0  0.3437500000000001  0.031249999999999993  0.4687499999999999  1.0000
  Mn  Mn1338    1.0  0.3437500000000001  0.09374999999999999  0.4687499999999999  1.0000
  Mn  Mn1339    1.0  0.3437500000000001  0.15625  0.4687499999999999  1.0000
  Mn  Mn1340    1.0  0.3437500000000001  0.21874999999999994  0.4687499999999999  1.0000
  Mn  Mn1341    1.0  0.3437500000000001  0.28125  0.4687499999999999  1.0000
  Mn  Mn1342    1.0  0.3437500000000001  0.34375  0.4687499999999999  1.0000
  Mn  Mn1343    1.0  0.3437500000000001  0.4062499999999999  0.4687499999999999  1.0000
  Mn  Mn1344    1.0  0.3437500000000001  0.4687499999999999  0.4687499999999999  1.0000
  Mn  Mn1345    1.0  0.375  0.0  0.43749999999999994  1.0000
  Mn  Mn1346    1.0  0.375  0.12499999999999997  0.43749999999999994  1.0000
  Mn  Mn1347    1.0  0.375  0.24999999999999994  0.43749999999999994  1.0000
  Mn  Mn1348    1.0  0.375  0.37499999999999994  0.43749999999999994  1.0000
  Mn  Mn1349    1.0  0.375  0.5625  0.43749999999999994  1.0000
  Mn  Mn1350    1.0  0.375  0.6875  0.43749999999999994  1.0000
  Mn  Mn1351    1.0  0.375  0.8124999999999998  0.43749999999999994  1.0000
  Mn  Mn1352    1.0  0.375  0.9374999999999998  0.43749999999999994  1.0000
  Mn  Mn1353    1.0  0.40625  0.031249999999999993  0.40624999999999994  1.0000
  Mn  Mn1354    1.0  0.40625  0.09374999999999999  0.40624999999999994  1.0000
  Mn  Mn1355    1.0  0.40625  0.15625  0.40624999999999994  1.0000
  Mn  Mn1356    1.0  0.40625  0.21874999999999994  0.40624999999999994  1.0000
  Mn  Mn1357    1.0  0.40625  0.28125  0.40624999999999994  1.0000
  Mn  Mn1358    1.0  0.40625  0.34375  0.40624999999999994  1.0000
  Mn  Mn1359    1.0  0.40625  0.4062499999999999  0.40624999999999994  1.0000
  Mn  Mn1360    1.0  0.40625  0.4687499999999999  0.40624999999999994  1.0000
  Mn  Mn1361    1.0  0.4375  0.062499999999999986  0.37499999999999994  1.0000
  Mn  Mn1362    1.0  0.4375  0.18749999999999997  0.37499999999999994  1.0000
  Mn  Mn1363    1.0  0.4375  0.3125  0.37499999999999994  1.0000
  Mn  Mn1364    1.0  0.4375  0.4374999999999999  0.37499999999999994  1.0000
  Mn  Mn1365    1.0  0.4375  0.4999999999999999  0.37499999999999994  1.0000
  Mn  Mn1366    1.0  0.4375  0.625  0.37499999999999994  1.0000
  Mn  Mn1367    1.0  0.4375  0.7499999999999999  0.37499999999999994  1.0000
  Mn  Mn1368    1.0  0.4375  0.8749999999999998  0.37499999999999994  1.0000
  Mn  Mn1369    1.0  0.46875  0.031249999999999993  0.34375000000000006  1.0000
  Mn  Mn1370    1.0  0.46875  0.09374999999999999  0.34375000000000006  1.0000
  Mn  Mn1371    1.0  0.46875  0.15625  0.34375000000000006  1.0000
  Mn  Mn1372    1.0  0.46875  0.21874999999999994  0.34375000000000006  1.0000
  Mn  Mn1373    1.0  0.46875  0.28125  0.34375000000000006  1.0000
  Mn  Mn1374    1.0  0.46875  0.34375  0.34375000000000006  1.0000
  Mn  Mn1375    1.0  0.46875  0.4062499999999999  0.34375000000000006  1.0000
  Mn  Mn1376    1.0  0.46875  0.4687499999999999  0.34375000000000006  1.0000
  Mn  Mn1377    1.0  0.49999999999999994  0.0  0.31250000000000006  1.0000
  Mn  Mn1378    1.0  0.49999999999999994  0.12499999999999997  0.31250000000000006  1.0000
  Mn  Mn1379    1.0  0.49999999999999994  0.24999999999999994  0.31250000000000006  1.0000
  Mn  Mn1380    1.0  0.49999999999999994  0.37499999999999994  0.31250000000000006  1.0000
  Mn  Mn1381    1.0  0.49999999999999994  0.5625  0.31250000000000006  1.0000
  Mn  Mn1382    1.0  0.49999999999999994  0.6875  0.31250000000000006  1.0000
  Mn  Mn1383    1.0  0.49999999999999994  0.8124999999999998  0.31250000000000006  1.0000
  Mn  Mn1384    1.0  0.49999999999999994  0.9374999999999998  0.31250000000000006  1.0000
  Mn  Mn1385    1.0  0.53125  0.031249999999999993  0.2812499999999999  1.0000
  Mn  Mn1386    1.0  0.53125  0.09374999999999999  0.2812499999999999  1.0000
  Mn  Mn1387    1.0  0.53125  0.15625  0.2812499999999999  1.0000
  Mn  Mn1388    1.0  0.53125  0.21874999999999994  0.2812499999999999  1.0000
  Mn  Mn1389    1.0  0.53125  0.28125  0.2812499999999999  1.0000
  Mn  Mn1390    1.0  0.53125  0.34375  0.2812499999999999  1.0000
  Mn  Mn1391    1.0  0.53125  0.4062499999999999  0.2812499999999999  1.0000
  Mn  Mn1392    1.0  0.53125  0.4687499999999999  0.2812499999999999  1.0000
  Mn  Mn1393    1.0  0.5625  0.062499999999999986  0.25  1.0000
  Mn  Mn1394    1.0  0.5625  0.18749999999999997  0.25  1.0000
  Mn  Mn1395    1.0  0.5625  0.3125  0.25  1.0000
  Mn  Mn1396    1.0  0.5625  0.4374999999999999  0.25  1.0000
  Mn  Mn1397    1.0  0.5625  0.4999999999999999  0.25  1.0000
  Mn  Mn1398    1.0  0.5625  0.625  0.25  1.0000
  Mn  Mn1399    1.0  0.5625  0.7499999999999999  0.25  1.0000
  Mn  Mn1400    1.0  0.5625  0.8749999999999998  0.25  1.0000
  Mn  Mn1401    1.0  0.59375  0.031249999999999993  0.21875000000000006  1.0000
  Mn  Mn1402    1.0  0.59375  0.09374999999999999  0.21875000000000006  1.0000
  Mn  Mn1403    1.0  0.59375  0.15625  0.21875000000000006  1.0000
  Mn  Mn1404    1.0  0.59375  0.21874999999999994  0.21875000000000006  1.0000
  Mn  Mn1405    1.0  0.59375  0.28125  0.21875000000000006  1.0000
  Mn  Mn1406    1.0  0.59375  0.34375  0.21875000000000006  1.0000
  Mn  Mn1407    1.0  0.59375  0.4062499999999999  0.21875000000000006  1.0000
  Mn  Mn1408    1.0  0.59375  0.4687499999999999  0.21875000000000006  1.0000
  Mn  Mn1409    1.0  0.6250000000000002  0.0  0.18750000000000006  1.0000
  Mn  Mn1410    1.0  0.6250000000000002  0.12499999999999997  0.18750000000000006  1.0000
  Mn  Mn1411    1.0  0.6250000000000002  0.24999999999999994  0.18750000000000006  1.0000
  Mn  Mn1412    1.0  0.6250000000000002  0.37499999999999994  0.18750000000000006  1.0000
  Mn  Mn1413    1.0  0.6250000000000002  0.5625  0.18750000000000006  1.0000
  Mn  Mn1414    1.0  0.6250000000000002  0.6875  0.18750000000000006  1.0000
  Mn  Mn1415    1.0  0.6250000000000002  0.8124999999999998  0.18750000000000006  1.0000
  Mn  Mn1416    1.0  0.6250000000000002  0.9374999999999998  0.18750000000000006  1.0000
  Mn  Mn1417    1.0  0.65625  0.031249999999999993  0.15625000000000003  1.0000
  Mn  Mn1418    1.0  0.65625  0.09374999999999999  0.15625000000000003  1.0000
  Mn  Mn1419    1.0  0.65625  0.15625  0.15625000000000003  1.0000
  Mn  Mn1420    1.0  0.65625  0.21874999999999994  0.15625000000000003  1.0000
  Mn  Mn1421    1.0  0.65625  0.28125  0.15625000000000003  1.0000
  Mn  Mn1422    1.0  0.65625  0.34375  0.15625000000000003  1.0000
  Mn  Mn1423    1.0  0.65625  0.4062499999999999  0.15625000000000003  1.0000
  Mn  Mn1424    1.0  0.65625  0.4687499999999999  0.15625000000000003  1.0000
  Mn  Mn1425    1.0  0.6875000000000002  0.062499999999999986  0.12500000000000006  1.0000
  Mn  Mn1426    1.0  0.6875000000000002  0.18749999999999997  0.12500000000000006  1.0000
  Mn  Mn1427    1.0  0.6875000000000002  0.3125  0.12500000000000006  1.0000
  Mn  Mn1428    1.0  0.6875000000000002  0.4374999999999999  0.12500000000000006  1.0000
  Mn  Mn1429    1.0  0.6875000000000002  0.4999999999999999  0.12500000000000006  1.0000
  Mn  Mn1430    1.0  0.6875000000000002  0.625  0.12500000000000006  1.0000
  Mn  Mn1431    1.0  0.6875000000000002  0.7499999999999999  0.12500000000000006  1.0000
  Mn  Mn1432    1.0  0.6875000000000002  0.8749999999999998  0.12500000000000006  1.0000
  Mn  Mn1433    1.0  0.71875  0.031249999999999993  0.09375000000000004  1.0000
  Mn  Mn1434    1.0  0.71875  0.09374999999999999  0.09375000000000004  1.0000
  Mn  Mn1435    1.0  0.71875  0.15625  0.09375000000000004  1.0000
  Mn  Mn1436    1.0  0.71875  0.21874999999999994  0.09375000000000004  1.0000
  Mn  Mn1437    1.0  0.71875  0.28125  0.09375000000000004  1.0000
  Mn  Mn1438    1.0  0.71875  0.34375  0.09375000000000004  1.0000
  Mn  Mn1439    1.0  0.71875  0.4062499999999999  0.09375000000000004  1.0000
  Mn  Mn1440    1.0  0.71875  0.4687499999999999  0.09375000000000004  1.0000
  Mn  Mn1441    1.0  0.75  0.0  0.06250000000000006  1.0000
  Mn  Mn1442    1.0  0.75  0.12499999999999997  0.06250000000000006  1.0000
  Mn  Mn1443    1.0  0.75  0.24999999999999994  0.06250000000000006  1.0000
  Mn  Mn1444    1.0  0.75  0.37499999999999994  0.06250000000000006  1.0000
  Mn  Mn1445    1.0  0.75  0.5625  0.06250000000000006  1.0000
  Mn  Mn1446    1.0  0.75  0.6875  0.06250000000000006  1.0000
  Mn  Mn1447    1.0  0.75  0.8124999999999998  0.06250000000000006  1.0000
  Mn  Mn1448    1.0  0.75  0.9374999999999998  0.06250000000000006  1.0000
  Mn  Mn1449    1.0  0.78125  0.031249999999999993  0.03125000000000005  1.0000
  Mn  Mn1450    1.0  0.78125  0.09374999999999999  0.03125000000000005  1.0000
  Mn  Mn1451    1.0  0.78125  0.15625  0.03125000000000005  1.0000
  Mn  Mn1452    1.0  0.78125  0.21874999999999994  0.03125000000000005  1.0000
  Mn  Mn1453    1.0  0.78125  0.28125  0.03125000000000005  1.0000
  Mn  Mn1454    1.0  0.78125  0.34375  0.03125000000000005  1.0000
  Mn  Mn1455    1.0  0.78125  0.4062499999999999  0.03125000000000005  1.0000
  Mn  Mn1456    1.0  0.78125  0.4687499999999999  0.03125000000000005  1.0000
  Mn  Mn1457    1.0  0.0  0.0  0.875  1.0000
  Mn  Mn1458    1.0  0.0  0.12499999999999997  0.875  1.0000
  Mn  Mn1459    1.0  0.0  0.24999999999999994  0.875  1.0000
  Mn  Mn1460    1.0  0.0  0.37499999999999994  0.875  1.0000
  Mn  Mn1461    1.0  0.0  0.5625  0.875  1.0000
  Mn  Mn1462    1.0  0.0  0.6875  0.875  1.0000
  Mn  Mn1463    1.0  0.0  0.8124999999999998  0.875  1.0000
  Mn  Mn1464    1.0  0.0  0.9374999999999998  0.875  1.0000
  Mn  Mn1465    1.0  0.03125  0.53125  0.84375  1.0000
  Mn  Mn1466    1.0  0.03125  0.59375  0.84375  1.0000
  Mn  Mn1467    1.0  0.03125  0.65625  0.84375  1.0000
  Mn  Mn1468    1.0  0.03125  0.7187499999999999  0.84375  1.0000
  Mn  Mn1469    1.0  0.03125  0.7812499999999999  0.84375  1.0000
  Mn  Mn1470    1.0  0.03125  0.8437499999999998  0.84375  1.0000
  Mn  Mn1471    1.0  0.03125  0.9062499999999998  0.84375  1.0000
  Mn  Mn1472    1.0  0.03125  0.9687499999999998  0.84375  1.0000
  Mn  Mn1473    1.0  0.0625  0.062499999999999986  0.8125  1.0000
  Mn  Mn1474    1.0  0.0625  0.18749999999999997  0.8125  1.0000
  Mn  Mn1475    1.0  0.0625  0.3125  0.8125  1.0000
  Mn  Mn1476    1.0  0.0625  0.4374999999999999  0.8125  1.0000
  Mn  Mn1477    1.0  0.0625  0.4999999999999999  0.8125  1.0000
  Mn  Mn1478    1.0  0.0625  0.625  0.8125  1.0000
  Mn  Mn1479    1.0  0.0625  0.7499999999999999  0.8125  1.0000
  Mn  Mn1480    1.0  0.0625  0.8749999999999998  0.8125  1.0000
  Mn  Mn1481    1.0  0.09375  0.53125  0.78125  1.0000
  Mn  Mn1482    1.0  0.09375  0.59375  0.78125  1.0000
  Mn  Mn1483    1.0  0.09375  0.65625  0.78125  1.0000
  Mn  Mn1484    1.0  0.09375  0.7187499999999999  0.78125  1.0000
  Mn  Mn1485    1.0  0.09375  0.7812499999999999  0.78125  1.0000
  Mn  Mn1486    1.0  0.09375  0.8437499999999998  0.78125  1.0000
  Mn  Mn1487    1.0  0.09375  0.9062499999999998  0.78125  1.0000
  Mn  Mn1488    1.0  0.09375  0.9687499999999998  0.78125  1.0000
  Mn  Mn1489    1.0  0.125  0.0  0.75  1.0000
  Mn  Mn1490    1.0  0.125  0.12499999999999997  0.75  1.0000
  Mn  Mn1491    1.0  0.125  0.24999999999999994  0.75  1.0000
  Mn  Mn1492    1.0  0.125  0.37499999999999994  0.75  1.0000
  Mn  Mn1493    1.0  0.125  0.5625  0.75  1.0000
  Mn  Mn1494    1.0  0.125  0.6875  0.75  1.0000
  Mn  Mn1495    1.0  0.125  0.8124999999999998  0.75  1.0000
  Mn  Mn1496    1.0  0.125  0.9374999999999998  0.75  1.0000
  Mn  Mn1497    1.0  0.15625000000000006  0.53125  0.71875  1.0000
  Mn  Mn1498    1.0  0.15625000000000006  0.59375  0.71875  1.0000
  Mn  Mn1499    1.0  0.15625000000000006  0.65625  0.71875  1.0000
  Mn  Mn1500    1.0  0.15625000000000006  0.7187499999999999  0.71875  1.0000
  Mn  Mn1501    1.0  0.15625000000000006  0.7812499999999999  0.71875  1.0000
  Mn  Mn1502    1.0  0.15625000000000006  0.8437499999999998  0.71875  1.0000
  Mn  Mn1503    1.0  0.15625000000000006  0.9062499999999998  0.71875  1.0000
  Mn  Mn1504    1.0  0.15625000000000006  0.9687499999999998  0.71875  1.0000
  Mn  Mn1505    1.0  0.1875  0.062499999999999986  0.6875000000000001  1.0000
  Mn  Mn1506    1.0  0.1875  0.18749999999999997  0.6875000000000001  1.0000
  Mn  Mn1507    1.0  0.1875  0.3125  0.6875000000000001  1.0000
  Mn  Mn1508    1.0  0.1875  0.4374999999999999  0.6875000000000001  1.0000
  Mn  Mn1509    1.0  0.1875  0.4999999999999999  0.6875000000000001  1.0000
  Mn  Mn1510    1.0  0.1875  0.625  0.6875000000000001  1.0000
  Mn  Mn1511    1.0  0.1875  0.7499999999999999  0.6875000000000001  1.0000
  Mn  Mn1512    1.0  0.1875  0.8749999999999998  0.6875000000000001  1.0000
  Mn  Mn1513    1.0  0.21875  0.53125  0.6562500000000001  1.0000
  Mn  Mn1514    1.0  0.21875  0.59375  0.6562500000000001  1.0000
  Mn  Mn1515    1.0  0.21875  0.65625  0.6562500000000001  1.0000
  Mn  Mn1516    1.0  0.21875  0.7187499999999999  0.6562500000000001  1.0000
  Mn  Mn1517    1.0  0.21875  0.7812499999999999  0.6562500000000001  1.0000
  Mn  Mn1518    1.0  0.21875  0.8437499999999998  0.6562500000000001  1.0000
  Mn  Mn1519    1.0  0.21875  0.9062499999999998  0.6562500000000001  1.0000
  Mn  Mn1520    1.0  0.21875  0.9687499999999998  0.6562500000000001  1.0000
  Mn  Mn1521    1.0  0.25  0.0  0.6250000000000001  1.0000
  Mn  Mn1522    1.0  0.25  0.12499999999999997  0.6250000000000001  1.0000
  Mn  Mn1523    1.0  0.25  0.24999999999999994  0.6250000000000001  1.0000
  Mn  Mn1524    1.0  0.25  0.37499999999999994  0.6250000000000001  1.0000
  Mn  Mn1525    1.0  0.25  0.5625  0.6250000000000001  1.0000
  Mn  Mn1526    1.0  0.25  0.6875  0.6250000000000001  1.0000
  Mn  Mn1527    1.0  0.25  0.8124999999999998  0.6250000000000001  1.0000
  Mn  Mn1528    1.0  0.25  0.9374999999999998  0.6250000000000001  1.0000
  Mn  Mn1529    1.0  0.28125  0.53125  0.5937500000000001  1.0000
  Mn  Mn1530    1.0  0.28125  0.59375  0.5937500000000001  1.0000
  Mn  Mn1531    1.0  0.28125  0.65625  0.5937500000000001  1.0000
  Mn  Mn1532    1.0  0.28125  0.7187499999999999  0.5937500000000001  1.0000
  Mn  Mn1533    1.0  0.28125  0.7812499999999999  0.5937500000000001  1.0000
  Mn  Mn1534    1.0  0.28125  0.8437499999999998  0.5937500000000001  1.0000
  Mn  Mn1535    1.0  0.28125  0.9062499999999998  0.5937500000000001  1.0000
  Mn  Mn1536    1.0  0.28125  0.9687499999999998  0.5937500000000001  1.0000
  Mn  Mn1537    1.0  0.3125000000000001  0.062499999999999986  0.5625000000000001  1.0000
  Mn  Mn1538    1.0  0.3125000000000001  0.18749999999999997  0.5625000000000001  1.0000
  Mn  Mn1539    1.0  0.3125000000000001  0.3125  0.5625000000000001  1.0000
  Mn  Mn1540    1.0  0.3125000000000001  0.4374999999999999  0.5625000000000001  1.0000
  Mn  Mn1541    1.0  0.3125000000000001  0.4999999999999999  0.5625000000000001  1.0000
  Mn  Mn1542    1.0  0.3125000000000001  0.625  0.5625000000000001  1.0000
  Mn  Mn1543    1.0  0.3125000000000001  0.7499999999999999  0.5625000000000001  1.0000
  Mn  Mn1544    1.0  0.3125000000000001  0.8749999999999998  0.5625000000000001  1.0000
  Mn  Mn1545    1.0  0.3437500000000001  0.53125  0.53125  1.0000
  Mn  Mn1546    1.0  0.3437500000000001  0.59375  0.53125  1.0000
  Mn  Mn1547    1.0  0.3437500000000001  0.65625  0.53125  1.0000
  Mn  Mn1548    1.0  0.3437500000000001  0.7187499999999999  0.53125  1.0000
  Mn  Mn1549    1.0  0.3437500000000001  0.7812499999999999  0.53125  1.0000
  Mn  Mn1550    1.0  0.3437500000000001  0.8437499999999998  0.53125  1.0000
  Mn  Mn1551    1.0  0.3437500000000001  0.9062499999999998  0.53125  1.0000
  Mn  Mn1552    1.0  0.3437500000000001  0.9687499999999998  0.53125  1.0000
  Mn  Mn1553    1.0  0.375  0.0  0.5  1.0000
  Mn  Mn1554    1.0  0.375  0.12499999999999997  0.5  1.0000
  Mn  Mn1555    1.0  0.375  0.24999999999999994  0.5  1.0000
  Mn  Mn1556    1.0  0.375  0.37499999999999994  0.5  1.0000
  Mn  Mn1557    1.0  0.375  0.5625  0.5  1.0000
  Mn  Mn1558    1.0  0.375  0.6875  0.5  1.0000
  Mn  Mn1559    1.0  0.375  0.8124999999999998  0.5  1.0000
  Mn  Mn1560    1.0  0.375  0.9374999999999998  0.5  1.0000
  Mn  Mn1561    1.0  0.40625  0.53125  0.4687499999999999  1.0000
  Mn  Mn1562    1.0  0.40625  0.59375  0.4687499999999999  1.0000
  Mn  Mn1563    1.0  0.40625  0.65625  0.4687499999999999  1.0000
  Mn  Mn1564    1.0  0.40625  0.7187499999999999  0.4687499999999999  1.0000
  Mn  Mn1565    1.0  0.40625  0.7812499999999999  0.4687499999999999  1.0000
  Mn  Mn1566    1.0  0.40625  0.8437499999999998  0.4687499999999999  1.0000
  Mn  Mn1567    1.0  0.40625  0.9062499999999998  0.4687499999999999  1.0000
  Mn  Mn1568    1.0  0.40625  0.9687499999999998  0.4687499999999999  1.0000
  Mn  Mn1569    1.0  0.4375  0.062499999999999986  0.43749999999999994  1.0000
  Mn  Mn1570    1.0  0.4375  0.18749999999999997  0.43749999999999994  1.0000
  Mn  Mn1571    1.0  0.4375  0.3125  0.43749999999999994  1.0000
  Mn  Mn1572    1.0  0.4375  0.4374999999999999  0.43749999999999994  1.0000
  Mn  Mn1573    1.0  0.4375  0.4999999999999999  0.43749999999999994  1.0000
  Mn  Mn1574    1.0  0.4375  0.625  0.43749999999999994  1.0000
  Mn  Mn1575    1.0  0.4375  0.7499999999999999  0.43749999999999994  1.0000
  Mn  Mn1576    1.0  0.4375  0.8749999999999998  0.43749999999999994  1.0000
  Mn  Mn1577    1.0  0.46875  0.53125  0.40624999999999994  1.0000
  Mn  Mn1578    1.0  0.46875  0.59375  0.40624999999999994  1.0000
  Mn  Mn1579    1.0  0.46875  0.65625  0.40624999999999994  1.0000
  Mn  Mn1580    1.0  0.46875  0.7187499999999999  0.40624999999999994  1.0000
  Mn  Mn1581    1.0  0.46875  0.7812499999999999  0.40624999999999994  1.0000
  Mn  Mn1582    1.0  0.46875  0.8437499999999998  0.40624999999999994  1.0000
  Mn  Mn1583    1.0  0.46875  0.9062499999999998  0.40624999999999994  1.0000
  Mn  Mn1584    1.0  0.46875  0.9687499999999998  0.40624999999999994  1.0000
  Mn  Mn1585    1.0  0.49999999999999994  0.0  0.37499999999999994  1.0000
  Mn  Mn1586    1.0  0.49999999999999994  0.12499999999999997  0.37499999999999994  1.0000
  Mn  Mn1587    1.0  0.49999999999999994  0.24999999999999994  0.37499999999999994  1.0000
  Mn  Mn1588    1.0  0.49999999999999994  0.37499999999999994  0.37499999999999994  1.0000
  Mn  Mn1589    1.0  0.49999999999999994  0.5625  0.37499999999999994  1.0000
  Mn  Mn1590    1.0  0.49999999999999994  0.6875  0.37499999999999994  1.0000
  Mn  Mn1591    1.0  0.49999999999999994  0.8124999999999998  0.37499999999999994  1.0000
  Mn  Mn1592    1.0  0.49999999999999994  0.9374999999999998  0.37499999999999994  1.0000
  Mn  Mn1593    1.0  0.53125  0.53125  0.34375000000000006  1.0000
  Mn  Mn1594    1.0  0.53125  0.59375  0.34375000000000006  1.0000
  Mn  Mn1595    1.0  0.53125  0.65625  0.34375000000000006  1.0000
  Mn  Mn1596    1.0  0.53125  0.7187499999999999  0.34375000000000006  1.0000
  Mn  Mn1597    1.0  0.53125  0.7812499999999999  0.34375000000000006  1.0000
  Mn  Mn1598    1.0  0.53125  0.8437499999999998  0.34375000000000006  1.0000
  Mn  Mn1599    1.0  0.53125  0.9062499999999998  0.34375000000000006  1.0000
  Mn  Mn1600    1.0  0.53125  0.9687499999999998  0.34375000000000006  1.0000
  Mn  Mn1601    1.0  0.5625  0.062499999999999986  0.31250000000000006  1.0000
  Mn  Mn1602    1.0  0.5625  0.18749999999999997  0.31250000000000006  1.0000
  Mn  Mn1603    1.0  0.5625  0.3125  0.31250000000000006  1.0000
  Mn  Mn1604    1.0  0.5625  0.4374999999999999  0.31250000000000006  1.0000
  Mn  Mn1605    1.0  0.5625  0.4999999999999999  0.31250000000000006  1.0000
  Mn  Mn1606    1.0  0.5625  0.625  0.31250000000000006  1.0000
  Mn  Mn1607    1.0  0.5625  0.7499999999999999  0.31250000000000006  1.0000
  Mn  Mn1608    1.0  0.5625  0.8749999999999998  0.31250000000000006  1.0000
  Mn  Mn1609    1.0  0.59375  0.53125  0.2812499999999999  1.0000
  Mn  Mn1610    1.0  0.59375  0.59375  0.2812499999999999  1.0000
  Mn  Mn1611    1.0  0.59375  0.65625  0.2812499999999999  1.0000
  Mn  Mn1612    1.0  0.59375  0.7187499999999999  0.2812499999999999  1.0000
  Mn  Mn1613    1.0  0.59375  0.7812499999999999  0.2812499999999999  1.0000
  Mn  Mn1614    1.0  0.59375  0.8437499999999998  0.2812499999999999  1.0000
  Mn  Mn1615    1.0  0.59375  0.9062499999999998  0.2812499999999999  1.0000
  Mn  Mn1616    1.0  0.59375  0.9687499999999998  0.2812499999999999  1.0000
  Mn  Mn1617    1.0  0.6250000000000002  0.0  0.25  1.0000
  Mn  Mn1618    1.0  0.6250000000000002  0.12499999999999997  0.25  1.0000
  Mn  Mn1619    1.0  0.6250000000000002  0.24999999999999994  0.25  1.0000
  Mn  Mn1620    1.0  0.6250000000000002  0.37499999999999994  0.25  1.0000
  Mn  Mn1621    1.0  0.6250000000000002  0.5625  0.25  1.0000
  Mn  Mn1622    1.0  0.6250000000000002  0.6875  0.25  1.0000
  Mn  Mn1623    1.0  0.6250000000000002  0.8124999999999998  0.25  1.0000
  Mn  Mn1624    1.0  0.6250000000000002  0.9374999999999998  0.25  1.0000
  Mn  Mn1625    1.0  0.65625  0.53125  0.21875000000000006  1.0000
  Mn  Mn1626    1.0  0.65625  0.59375  0.21875000000000006  1.0000
  Mn  Mn1627    1.0  0.65625  0.65625  0.21875000000000006  1.0000
  Mn  Mn1628    1.0  0.65625  0.7187499999999999  0.21875000000000006  1.0000
  Mn  Mn1629    1.0  0.65625  0.7812499999999999  0.21875000000000006  1.0000
  Mn  Mn1630    1.0  0.65625  0.8437499999999998  0.21875000000000006  1.0000
  Mn  Mn1631    1.0  0.65625  0.9062499999999998  0.21875000000000006  1.0000
  Mn  Mn1632    1.0  0.65625  0.9687499999999998  0.21875000000000006  1.0000
  Mn  Mn1633    1.0  0.6875000000000002  0.062499999999999986  0.18750000000000006  1.0000
  Mn  Mn1634    1.0  0.6875000000000002  0.18749999999999997  0.18750000000000006  1.0000
  Mn  Mn1635    1.0  0.6875000000000002  0.3125  0.18750000000000006  1.0000
  Mn  Mn1636    1.0  0.6875000000000002  0.4374999999999999  0.18750000000000006  1.0000
  Mn  Mn1637    1.0  0.6875000000000002  0.4999999999999999  0.18750000000000006  1.0000
  Mn  Mn1638    1.0  0.6875000000000002  0.625  0.18750000000000006  1.0000
  Mn  Mn1639    1.0  0.6875000000000002  0.7499999999999999  0.18750000000000006  1.0000
  Mn  Mn1640    1.0  0.6875000000000002  0.8749999999999998  0.18750000000000006  1.0000
  Mn  Mn1641    1.0  0.71875  0.53125  0.15625000000000003  1.0000
  Mn  Mn1642    1.0  0.71875  0.59375  0.15625000000000003  1.0000
  Mn  Mn1643    1.0  0.71875  0.65625  0.15625000000000003  1.0000
  Mn  Mn1644    1.0  0.71875  0.7187499999999999  0.15625000000000003  1.0000
  Mn  Mn1645    1.0  0.71875  0.7812499999999999  0.15625000000000003  1.0000
  Mn  Mn1646    1.0  0.71875  0.8437499999999998  0.15625000000000003  1.0000
  Mn  Mn1647    1.0  0.71875  0.9062499999999998  0.15625000000000003  1.0000
  Mn  Mn1648    1.0  0.71875  0.9687499999999998  0.15625000000000003  1.0000
  Mn  Mn1649    1.0  0.75  0.0  0.12500000000000006  1.0000
  Mn  Mn1650    1.0  0.75  0.12499999999999997  0.12500000000000006  1.0000
  Mn  Mn1651    1.0  0.75  0.24999999999999994  0.12500000000000006  1.0000
  Mn  Mn1652    1.0  0.75  0.37499999999999994  0.12500000000000006  1.0000
  Mn  Mn1653    1.0  0.75  0.5625  0.12500000000000006  1.0000
  Mn  Mn1654    1.0  0.75  0.6875  0.12500000000000006  1.0000
  Mn  Mn1655    1.0  0.75  0.8124999999999998  0.12500000000000006  1.0000
  Mn  Mn1656    1.0  0.75  0.9374999999999998  0.12500000000000006  1.0000
  Mn  Mn1657    1.0  0.78125  0.53125  0.09375000000000004  1.0000
  Mn  Mn1658    1.0  0.78125  0.59375  0.09375000000000004  1.0000
  Mn  Mn1659    1.0  0.78125  0.65625  0.09375000000000004  1.0000
  Mn  Mn1660    1.0  0.78125  0.7187499999999999  0.09375000000000004  1.0000
  Mn  Mn1661    1.0  0.78125  0.7812499999999999  0.09375000000000004  1.0000
  Mn  Mn1662    1.0  0.78125  0.8437499999999998  0.09375000000000004  1.0000
  Mn  Mn1663    1.0  0.78125  0.9062499999999998  0.09375000000000004  1.0000
  Mn  Mn1664    1.0  0.78125  0.9687499999999998  0.09375000000000004  1.0000
  Mn  Mn1665    1.0  0.8125  0.062499999999999986  0.06250000000000006  1.0000
  Mn  Mn1666    1.0  0.8125  0.18749999999999997  0.06250000000000006  1.0000
  Mn  Mn1667    1.0  0.8125  0.3125  0.06250000000000006  1.0000
  Mn  Mn1668    1.0  0.8125  0.4374999999999999  0.06250000000000006  1.0000
  Mn  Mn1669    1.0  0.8125  0.4999999999999999  0.06250000000000006  1.0000
  Mn  Mn1670    1.0  0.8125  0.625  0.06250000000000006  1.0000
  Mn  Mn1671    1.0  0.8125  0.7499999999999999  0.06250000000000006  1.0000
  Mn  Mn1672    1.0  0.8125  0.8749999999999998  0.06250000000000006  1.0000
  Mn  Mn1673    1.0  0.8437500000000002  0.53125  0.03125000000000005  1.0000
  Mn  Mn1674    1.0  0.8437500000000002  0.59375  0.03125000000000005  1.0000
  Mn  Mn1675    1.0  0.8437500000000002  0.65625  0.03125000000000005  1.0000
  Mn  Mn1676    1.0  0.8437500000000002  0.7187499999999999  0.03125000000000005  1.0000
  Mn  Mn1677    1.0  0.8437500000000002  0.7812499999999999  0.03125000000000005  1.0000
  Mn  Mn1678    1.0  0.8437500000000002  0.8437499999999998  0.03125000000000005  1.0000
  Mn  Mn1679    1.0  0.8437500000000002  0.9062499999999998  0.03125000000000005  1.0000
  Mn  Mn1680    1.0  0.8437500000000002  0.9687499999999998  0.03125000000000005  1.0000
  Mn  Mn1681    1.0  0.0  0.0  0.9375000000000001  1.0000
  Mn  Mn1682    1.0  0.0  0.12499999999999997  0.9375000000000001  1.0000
  Mn  Mn1683    1.0  0.0  0.24999999999999994  0.9375000000000001  1.0000
  Mn  Mn1684    1.0  0.0  0.37499999999999994  0.9375000000000001  1.0000
  Mn  Mn1685    1.0  0.0  0.5625  0.9375000000000001  1.0000
  Mn  Mn1686    1.0  0.0  0.6875  0.9375000000000001  1.0000
  Mn  Mn1687    1.0  0.0  0.8124999999999998  0.9375000000000001  1.0000
  Mn  Mn1688    1.0  0.0  0.9374999999999998  0.9375000000000001  1.0000
  Mn  Mn1689    1.0  0.03125  0.031249999999999993  0.9062500000000001  1.0000
  Mn  Mn1690    1.0  0.03125  0.09374999999999999  0.9062500000000001  1.0000
  Mn  Mn1691    1.0  0.03125  0.15625  0.9062500000000001  1.0000
  Mn  Mn1692    1.0  0.03125  0.21874999999999994  0.9062500000000001  1.0000
  Mn  Mn1693    1.0  0.03125  0.28125  0.9062500000000001  1.0000
  Mn  Mn1694    1.0  0.03125  0.34375  0.9062500000000001  1.0000
  Mn  Mn1695    1.0  0.03125  0.4062499999999999  0.9062500000000001  1.0000
  Mn  Mn1696    1.0  0.03125  0.4687499999999999  0.9062500000000001  1.0000
  Mn  Mn1697    1.0  0.0625  0.062499999999999986  0.875  1.0000
  Mn  Mn1698    1.0  0.0625  0.18749999999999997  0.875  1.0000
  Mn  Mn1699    1.0  0.0625  0.3125  0.875  1.0000
  Mn  Mn1700    1.0  0.0625  0.4374999999999999  0.875  1.0000
  Mn  Mn1701    1.0  0.0625  0.4999999999999999  0.875  1.0000
  Mn  Mn1702    1.0  0.0625  0.625  0.875  1.0000
  Mn  Mn1703    1.0  0.0625  0.7499999999999999  0.875  1.0000
  Mn  Mn1704    1.0  0.0625  0.8749999999999998  0.875  1.0000
  Mn  Mn1705    1.0  0.09375  0.031249999999999993  0.84375  1.0000
  Mn  Mn1706    1.0  0.09375  0.09374999999999999  0.84375  1.0000
  Mn  Mn1707    1.0  0.09375  0.15625  0.84375  1.0000
  Mn  Mn1708    1.0  0.09375  0.21874999999999994  0.84375  1.0000
  Mn  Mn1709    1.0  0.09375  0.28125  0.84375  1.0000
  Mn  Mn1710    1.0  0.09375  0.34375  0.84375  1.0000
  Mn  Mn1711    1.0  0.09375  0.4062499999999999  0.84375  1.0000
  Mn  Mn1712    1.0  0.09375  0.4687499999999999  0.84375  1.0000
  Mn  Mn1713    1.0  0.125  0.0  0.8125  1.0000
  Mn  Mn1714    1.0  0.125  0.12499999999999997  0.8125  1.0000
  Mn  Mn1715    1.0  0.125  0.24999999999999994  0.8125  1.0000
  Mn  Mn1716    1.0  0.125  0.37499999999999994  0.8125  1.0000
  Mn  Mn1717    1.0  0.125  0.5625  0.8125  1.0000
  Mn  Mn1718    1.0  0.125  0.6875  0.8125  1.0000
  Mn  Mn1719    1.0  0.125  0.8124999999999998  0.8125  1.0000
  Mn  Mn1720    1.0  0.125  0.9374999999999998  0.8125  1.0000
  Mn  Mn1721    1.0  0.15625000000000006  0.031249999999999993  0.78125  1.0000
  Mn  Mn1722    1.0  0.15625000000000006  0.09374999999999999  0.78125  1.0000
  Mn  Mn1723    1.0  0.15625000000000006  0.15625  0.78125  1.0000
  Mn  Mn1724    1.0  0.15625000000000006  0.21874999999999994  0.78125  1.0000
  Mn  Mn1725    1.0  0.15625000000000006  0.28125  0.78125  1.0000
  Mn  Mn1726    1.0  0.15625000000000006  0.34375  0.78125  1.0000
  Mn  Mn1727    1.0  0.15625000000000006  0.4062499999999999  0.78125  1.0000
  Mn  Mn1728    1.0  0.15625000000000006  0.4687499999999999  0.78125  1.0000
  Mn  Mn1729    1.0  0.1875  0.062499999999999986  0.75  1.0000
  Mn  Mn1730    1.0  0.1875  0.18749999999999997  0.75  1.0000
  Mn  Mn1731    1.0  0.1875  0.3125  0.75  1.0000
  Mn  Mn1732    1.0  0.1875  0.4374999999999999  0.75  1.0000
  Mn  Mn1733    1.0  0.1875  0.4999999999999999  0.75  1.0000
  Mn  Mn1734    1.0  0.1875  0.625  0.75  1.0000
  Mn  Mn1735    1.0  0.1875  0.7499999999999999  0.75  1.0000
  Mn  Mn1736    1.0  0.1875  0.8749999999999998  0.75  1.0000
  Mn  Mn1737    1.0  0.21875  0.031249999999999993  0.71875  1.0000
  Mn  Mn1738    1.0  0.21875  0.09374999999999999  0.71875  1.0000
  Mn  Mn1739    1.0  0.21875  0.15625  0.71875  1.0000
  Mn  Mn1740    1.0  0.21875  0.21874999999999994  0.71875  1.0000
  Mn  Mn1741    1.0  0.21875  0.28125  0.71875  1.0000
  Mn  Mn1742    1.0  0.21875  0.34375  0.71875  1.0000
  Mn  Mn1743    1.0  0.21875  0.4062499999999999  0.71875  1.0000
  Mn  Mn1744    1.0  0.21875  0.4687499999999999  0.71875  1.0000
  Mn  Mn1745    1.0  0.25  0.0  0.6875000000000001  1.0000
  Mn  Mn1746    1.0  0.25  0.12499999999999997  0.6875000000000001  1.0000
  Mn  Mn1747    1.0  0.25  0.24999999999999994  0.6875000000000001  1.0000
  Mn  Mn1748    1.0  0.25  0.37499999999999994  0.6875000000000001  1.0000
  Mn  Mn1749    1.0  0.25  0.5625  0.6875000000000001  1.0000
  Mn  Mn1750    1.0  0.25  0.6875  0.6875000000000001  1.0000
  Mn  Mn1751    1.0  0.25  0.8124999999999998  0.6875000000000001  1.0000
  Mn  Mn1752    1.0  0.25  0.9374999999999998  0.6875000000000001  1.0000
  Mn  Mn1753    1.0  0.28125  0.031249999999999993  0.6562500000000001  1.0000
  Mn  Mn1754    1.0  0.28125  0.09374999999999999  0.6562500000000001  1.0000
  Mn  Mn1755    1.0  0.28125  0.15625  0.6562500000000001  1.0000
  Mn  Mn1756    1.0  0.28125  0.21874999999999994  0.6562500000000001  1.0000
  Mn  Mn1757    1.0  0.28125  0.28125  0.6562500000000001  1.0000
  Mn  Mn1758    1.0  0.28125  0.34375  0.6562500000000001  1.0000
  Mn  Mn1759    1.0  0.28125  0.4062499999999999  0.6562500000000001  1.0000
  Mn  Mn1760    1.0  0.28125  0.4687499999999999  0.6562500000000001  1.0000
  Mn  Mn1761    1.0  0.3125000000000001  0.062499999999999986  0.6250000000000001  1.0000
  Mn  Mn1762    1.0  0.3125000000000001  0.18749999999999997  0.6250000000000001  1.0000
  Mn  Mn1763    1.0  0.3125000000000001  0.3125  0.6250000000000001  1.0000
  Mn  Mn1764    1.0  0.3125000000000001  0.4374999999999999  0.6250000000000001  1.0000
  Mn  Mn1765    1.0  0.3125000000000001  0.4999999999999999  0.6250000000000001  1.0000
  Mn  Mn1766    1.0  0.3125000000000001  0.625  0.6250000000000001  1.0000
  Mn  Mn1767    1.0  0.3125000000000001  0.7499999999999999  0.6250000000000001  1.0000
  Mn  Mn1768    1.0  0.3125000000000001  0.8749999999999998  0.6250000000000001  1.0000
  Mn  Mn1769    1.0  0.3437500000000001  0.031249999999999993  0.5937500000000001  1.0000
  Mn  Mn1770    1.0  0.3437500000000001  0.09374999999999999  0.5937500000000001  1.0000
  Mn  Mn1771    1.0  0.3437500000000001  0.15625  0.5937500000000001  1.0000
  Mn  Mn1772    1.0  0.3437500000000001  0.21874999999999994  0.5937500000000001  1.0000
  Mn  Mn1773    1.0  0.3437500000000001  0.28125  0.5937500000000001  1.0000
  Mn  Mn1774    1.0  0.3437500000000001  0.34375  0.5937500000000001  1.0000
  Mn  Mn1775    1.0  0.3437500000000001  0.4062499999999999  0.5937500000000001  1.0000
  Mn  Mn1776    1.0  0.3437500000000001  0.4687499999999999  0.5937500000000001  1.0000
  Mn  Mn1777    1.0  0.375  0.0  0.5625000000000001  1.0000
  Mn  Mn1778    1.0  0.375  0.12499999999999997  0.5625000000000001  1.0000
  Mn  Mn1779    1.0  0.375  0.24999999999999994  0.5625000000000001  1.0000
  Mn  Mn1780    1.0  0.375  0.37499999999999994  0.5625000000000001  1.0000
  Mn  Mn1781    1.0  0.375  0.5625  0.5625000000000001  1.0000
  Mn  Mn1782    1.0  0.375  0.6875  0.5625000000000001  1.0000
  Mn  Mn1783    1.0  0.375  0.8124999999999998  0.5625000000000001  1.0000
  Mn  Mn1784    1.0  0.375  0.9374999999999998  0.5625000000000001  1.0000
  Mn  Mn1785    1.0  0.40625  0.031249999999999993  0.53125  1.0000
  Mn  Mn1786    1.0  0.40625  0.09374999999999999  0.53125  1.0000
  Mn  Mn1787    1.0  0.40625  0.15625  0.53125  1.0000
  Mn  Mn1788    1.0  0.40625  0.21874999999999994  0.53125  1.0000
  Mn  Mn1789    1.0  0.40625  0.28125  0.53125  1.0000
  Mn  Mn1790    1.0  0.40625  0.34375  0.53125  1.0000
  Mn  Mn1791    1.0  0.40625  0.4062499999999999  0.53125  1.0000
  Mn  Mn1792    1.0  0.40625  0.4687499999999999  0.53125  1.0000
  Mn  Mn1793    1.0  0.4375  0.062499999999999986  0.5  1.0000
  Mn  Mn1794    1.0  0.4375  0.18749999999999997  0.5  1.0000
  Mn  Mn1795    1.0  0.4375  0.3125  0.5  1.0000
  Mn  Mn1796    1.0  0.4375  0.4374999999999999  0.5  1.0000
  Mn  Mn1797    1.0  0.4375  0.4999999999999999  0.5  1.0000
  Mn  Mn1798    1.0  0.4375  0.625  0.5  1.0000
  Mn  Mn1799    1.0  0.4375  0.7499999999999999  0.5  1.0000
  Mn  Mn1800    1.0  0.4375  0.8749999999999998  0.5  1.0000
  Mn  Mn1801    1.0  0.46875  0.031249999999999993  0.4687499999999999  1.0000
  Mn  Mn1802    1.0  0.46875  0.09374999999999999  0.4687499999999999  1.0000
  Mn  Mn1803    1.0  0.46875  0.15625  0.4687499999999999  1.0000
  Mn  Mn1804    1.0  0.46875  0.21874999999999994  0.4687499999999999  1.0000
  Mn  Mn1805    1.0  0.46875  0.28125  0.4687499999999999  1.0000
  Mn  Mn1806    1.0  0.46875  0.34375  0.4687499999999999  1.0000
  Mn  Mn1807    1.0  0.46875  0.4062499999999999  0.4687499999999999  1.0000
  Mn  Mn1808    1.0  0.46875  0.4687499999999999  0.4687499999999999  1.0000
  Mn  Mn1809    1.0  0.49999999999999994  0.0  0.43749999999999994  1.0000
  Mn  Mn1810    1.0  0.49999999999999994  0.12499999999999997  0.43749999999999994  1.0000
  Mn  Mn1811    1.0  0.49999999999999994  0.24999999999999994  0.43749999999999994  1.0000
  Mn  Mn1812    1.0  0.49999999999999994  0.37499999999999994  0.43749999999999994  1.0000
  Mn  Mn1813    1.0  0.49999999999999994  0.5625  0.43749999999999994  1.0000
  Mn  Mn1814    1.0  0.49999999999999994  0.6875  0.43749999999999994  1.0000
  Mn  Mn1815    1.0  0.49999999999999994  0.8124999999999998  0.43749999999999994  1.0000
  Mn  Mn1816    1.0  0.49999999999999994  0.9374999999999998  0.43749999999999994  1.0000
  Mn  Mn1817    1.0  0.53125  0.031249999999999993  0.40624999999999994  1.0000
  Mn  Mn1818    1.0  0.53125  0.09374999999999999  0.40624999999999994  1.0000
  Mn  Mn1819    1.0  0.53125  0.15625  0.40624999999999994  1.0000
  Mn  Mn1820    1.0  0.53125  0.21874999999999994  0.40624999999999994  1.0000
  Mn  Mn1821    1.0  0.53125  0.28125  0.40624999999999994  1.0000
  Mn  Mn1822    1.0  0.53125  0.34375  0.40624999999999994  1.0000
  Mn  Mn1823    1.0  0.53125  0.4062499999999999  0.40624999999999994  1.0000
  Mn  Mn1824    1.0  0.53125  0.4687499999999999  0.40624999999999994  1.0000
  Mn  Mn1825    1.0  0.5625  0.062499999999999986  0.37499999999999994  1.0000
  Mn  Mn1826    1.0  0.5625  0.18749999999999997  0.37499999999999994  1.0000
  Mn  Mn1827    1.0  0.5625  0.3125  0.37499999999999994  1.0000
  Mn  Mn1828    1.0  0.5625  0.4374999999999999  0.37499999999999994  1.0000
  Mn  Mn1829    1.0  0.5625  0.4999999999999999  0.37499999999999994  1.0000
  Mn  Mn1830    1.0  0.5625  0.625  0.37499999999999994  1.0000
  Mn  Mn1831    1.0  0.5625  0.7499999999999999  0.37499999999999994  1.0000
  Mn  Mn1832    1.0  0.5625  0.8749999999999998  0.37499999999999994  1.0000
  Mn  Mn1833    1.0  0.59375  0.031249999999999993  0.34375000000000006  1.0000
  Mn  Mn1834    1.0  0.59375  0.09374999999999999  0.34375000000000006  1.0000
  Mn  Mn1835    1.0  0.59375  0.15625  0.34375000000000006  1.0000
  Mn  Mn1836    1.0  0.59375  0.21874999999999994  0.34375000000000006  1.0000
  Mn  Mn1837    1.0  0.59375  0.28125  0.34375000000000006  1.0000
  Mn  Mn1838    1.0  0.59375  0.34375  0.34375000000000006  1.0000
  Mn  Mn1839    1.0  0.59375  0.4062499999999999  0.34375000000000006  1.0000
  Mn  Mn1840    1.0  0.59375  0.4687499999999999  0.34375000000000006  1.0000
  Mn  Mn1841    1.0  0.6250000000000002  0.0  0.31250000000000006  1.0000
  Mn  Mn1842    1.0  0.6250000000000002  0.12499999999999997  0.31250000000000006  1.0000
  Mn  Mn1843    1.0  0.6250000000000002  0.24999999999999994  0.31250000000000006  1.0000
  Mn  Mn1844    1.0  0.6250000000000002  0.37499999999999994  0.31250000000000006  1.0000
  Mn  Mn1845    1.0  0.6250000000000002  0.5625  0.31250000000000006  1.0000
  Mn  Mn1846    1.0  0.6250000000000002  0.6875  0.31250000000000006  1.0000
  Mn  Mn1847    1.0  0.6250000000000002  0.8124999999999998  0.31250000000000006  1.0000
  Mn  Mn1848    1.0  0.6250000000000002  0.9374999999999998  0.31250000000000006  1.0000
  Mn  Mn1849    1.0  0.65625  0.031249999999999993  0.2812499999999999  1.0000
  Mn  Mn1850    1.0  0.65625  0.09374999999999999  0.2812499999999999  1.0000
  Mn  Mn1851    1.0  0.65625  0.15625  0.2812499999999999  1.0000
  Mn  Mn1852    1.0  0.65625  0.21874999999999994  0.2812499999999999  1.0000
  Mn  Mn1853    1.0  0.65625  0.28125  0.2812499999999999  1.0000
  Mn  Mn1854    1.0  0.65625  0.34375  0.2812499999999999  1.0000
  Mn  Mn1855    1.0  0.65625  0.4062499999999999  0.2812499999999999  1.0000
  Mn  Mn1856    1.0  0.65625  0.4687499999999999  0.2812499999999999  1.0000
  Mn  Mn1857    1.0  0.6875000000000002  0.062499999999999986  0.25  1.0000
  Mn  Mn1858    1.0  0.6875000000000002  0.18749999999999997  0.25  1.0000
  Mn  Mn1859    1.0  0.6875000000000002  0.3125  0.25  1.0000
  Mn  Mn1860    1.0  0.6875000000000002  0.4374999999999999  0.25  1.0000
  Mn  Mn1861    1.0  0.6875000000000002  0.4999999999999999  0.25  1.0000
  Mn  Mn1862    1.0  0.6875000000000002  0.625  0.25  1.0000
  Mn  Mn1863    1.0  0.6875000000000002  0.7499999999999999  0.25  1.0000
  Mn  Mn1864    1.0  0.6875000000000002  0.8749999999999998  0.25  1.0000
  Mn  Mn1865    1.0  0.71875  0.031249999999999993  0.21875000000000006  1.0000
  Mn  Mn1866    1.0  0.71875  0.09374999999999999  0.21875000000000006  1.0000
  Mn  Mn1867    1.0  0.71875  0.15625  0.21875000000000006  1.0000
  Mn  Mn1868    1.0  0.71875  0.21874999999999994  0.21875000000000006  1.0000
  Mn  Mn1869    1.0  0.71875  0.28125  0.21875000000000006  1.0000
  Mn  Mn1870    1.0  0.71875  0.34375  0.21875000000000006  1.0000
  Mn  Mn1871    1.0  0.71875  0.4062499999999999  0.21875000000000006  1.0000
  Mn  Mn1872    1.0  0.71875  0.4687499999999999  0.21875000000000006  1.0000
  Mn  Mn1873    1.0  0.75  0.0  0.18750000000000006  1.0000
  Mn  Mn1874    1.0  0.75  0.12499999999999997  0.18750000000000006  1.0000
  Mn  Mn1875    1.0  0.75  0.24999999999999994  0.18750000000000006  1.0000
  Mn  Mn1876    1.0  0.75  0.37499999999999994  0.18750000000000006  1.0000
  Mn  Mn1877    1.0  0.75  0.5625  0.18750000000000006  1.0000
  Mn  Mn1878    1.0  0.75  0.6875  0.18750000000000006  1.0000
  Mn  Mn1879    1.0  0.75  0.8124999999999998  0.18750000000000006  1.0000
  Mn  Mn1880    1.0  0.75  0.9374999999999998  0.18750000000000006  1.0000
  Mn  Mn1881    1.0  0.78125  0.031249999999999993  0.15625000000000003  1.0000
  Mn  Mn1882    1.0  0.78125  0.09374999999999999  0.15625000000000003  1.0000
  Mn  Mn1883    1.0  0.78125  0.15625  0.15625000000000003  1.0000
  Mn  Mn1884    1.0  0.78125  0.21874999999999994  0.15625000000000003  1.0000
  Mn  Mn1885    1.0  0.78125  0.28125  0.15625000000000003  1.0000
  Mn  Mn1886    1.0  0.78125  0.34375  0.15625000000000003  1.0000
  Mn  Mn1887    1.0  0.78125  0.4062499999999999  0.15625000000000003  1.0000
  Mn  Mn1888    1.0  0.78125  0.4687499999999999  0.15625000000000003  1.0000
  Mn  Mn1889    1.0  0.8125  0.062499999999999986  0.12500000000000006  1.0000
  Mn  Mn1890    1.0  0.8125  0.18749999999999997  0.12500000000000006  1.0000
  Mn  Mn1891    1.0  0.8125  0.3125  0.12500000000000006  1.0000
  Mn  Mn1892    1.0  0.8125  0.4374999999999999  0.12500000000000006  1.0000
  Mn  Mn1893    1.0  0.8125  0.4999999999999999  0.12500000000000006  1.0000
  Mn  Mn1894    1.0  0.8125  0.625  0.12500000000000006  1.0000
  Mn  Mn1895    1.0  0.8125  0.7499999999999999  0.12500000000000006  1.0000
  Mn  Mn1896    1.0  0.8125  0.8749999999999998  0.12500000000000006  1.0000
  Mn  Mn1897    1.0  0.8437500000000002  0.031249999999999993  0.09375000000000004  1.0000
  Mn  Mn1898    1.0  0.8437500000000002  0.09374999999999999  0.09375000000000004  1.0000
  Mn  Mn1899    1.0  0.8437500000000002  0.15625  0.09375000000000004  1.0000
  Mn  Mn1900    1.0  0.8437500000000002  0.21874999999999994  0.09375000000000004  1.0000
  Mn  Mn1901    1.0  0.8437500000000002  0.28125  0.09375000000000004  1.0000
  Mn  Mn1902    1.0  0.8437500000000002  0.34375  0.09375000000000004  1.0000
  Mn  Mn1903    1.0  0.8437500000000002  0.4062499999999999  0.09375000000000004  1.0000
  Mn  Mn1904    1.0  0.8437500000000002  0.4687499999999999  0.09375000000000004  1.0000
  Mn  Mn1905    1.0  0.875  0.0  0.06250000000000006  1.0000
  Mn  Mn1906    1.0  0.875  0.12499999999999997  0.06250000000000006  1.0000
  Mn  Mn1907    1.0  0.875  0.24999999999999994  0.06250000000000006  1.0000
  Mn  Mn1908    1.0  0.875  0.37499999999999994  0.06250000000000006  1.0000
  Mn  Mn1909    1.0  0.875  0.5625  0.06250000000000006  1.0000
  Mn  Mn1910    1.0  0.875  0.6875  0.06250000000000006  1.0000
  Mn  Mn1911    1.0  0.875  0.8124999999999998  0.06250000000000006  1.0000
  Mn  Mn1912    1.0  0.875  0.9374999999999998  0.06250000000000006  1.0000
  Mn  Mn1913    1.0  0.9062500000000002  0.031249999999999993  0.03125000000000005  1.0000
  Mn  Mn1914    1.0  0.9062500000000002  0.09374999999999999  0.03125000000000005  1.0000
  Mn  Mn1915    1.0  0.9062500000000002  0.15625  0.03125000000000005  1.0000
  Mn  Mn1916    1.0  0.9062500000000002  0.21874999999999994  0.03125000000000005  1.0000
  Mn  Mn1917    1.0  0.9062500000000002  0.28125  0.03125000000000005  1.0000
  Mn  Mn1918    1.0  0.9062500000000002  0.34375  0.03125000000000005  1.0000
  Mn  Mn1919    1.0  0.9062500000000002  0.4062499999999999  0.03125000000000005  1.0000
  Mn  Mn1920    1.0  0.9062500000000002  0.4687499999999999  0.03125000000000005  1.0000
  Mn  Mn1921    1.0  0.0  0.0  0.0  1.0000
  Mn  Mn1922    1.0  0.0  0.12499999999999997  0.0  1.0000
  Mn  Mn1923    1.0  0.0  0.24999999999999994  0.0  1.0000
  Mn  Mn1924    1.0  0.0  0.37499999999999994  0.0  1.0000
  Mn  Mn1925    1.0  0.0  0.5625  0.0  1.0000
  Mn  Mn1926    1.0  0.0  0.6875  0.0  1.0000
  Mn  Mn1927    1.0  0.0  0.8124999999999998  0.0  1.0000
  Mn  Mn1928    1.0  0.0  0.9374999999999998  0.0  1.0000
  Mn  Mn1929    1.0  0.03125  0.53125  0.9687500000000001  1.0000
  Mn  Mn1930    1.0  0.03125  0.59375  0.9687500000000001  1.0000
  Mn  Mn1931    1.0  0.03125  0.65625  0.9687500000000001  1.0000
  Mn  Mn1932    1.0  0.03125  0.7187499999999999  0.9687500000000001  1.0000
  Mn  Mn1933    1.0  0.03125  0.7812499999999999  0.9687500000000001  1.0000
  Mn  Mn1934    1.0  0.03125  0.8437499999999998  0.9687500000000001  1.0000
  Mn  Mn1935    1.0  0.03125  0.9062499999999998  0.9687500000000001  1.0000
  Mn  Mn1936    1.0  0.03125  0.9687499999999998  0.9687500000000001  1.0000
  Mn  Mn1937    1.0  0.0625  0.062499999999999986  0.9375000000000001  1.0000
  Mn  Mn1938    1.0  0.0625  0.18749999999999997  0.9375000000000001  1.0000
  Mn  Mn1939    1.0  0.0625  0.3125  0.9375000000000001  1.0000
  Mn  Mn1940    1.0  0.0625  0.4374999999999999  0.9375000000000001  1.0000
  Mn  Mn1941    1.0  0.0625  0.4999999999999999  0.9375000000000001  1.0000
  Mn  Mn1942    1.0  0.0625  0.625  0.9375000000000001  1.0000
  Mn  Mn1943    1.0  0.0625  0.7499999999999999  0.9375000000000001  1.0000
  Mn  Mn1944    1.0  0.0625  0.8749999999999998  0.9375000000000001  1.0000
  Mn  Mn1945    1.0  0.09375  0.53125  0.9062500000000001  1.0000
  Mn  Mn1946    1.0  0.09375  0.59375  0.9062500000000001  1.0000
  Mn  Mn1947    1.0  0.09375  0.65625  0.9062500000000001  1.0000
  Mn  Mn1948    1.0  0.09375  0.7187499999999999  0.9062500000000001  1.0000
  Mn  Mn1949    1.0  0.09375  0.7812499999999999  0.9062500000000001  1.0000
  Mn  Mn1950    1.0  0.09375  0.8437499999999998  0.9062500000000001  1.0000
  Mn  Mn1951    1.0  0.09375  0.9062499999999998  0.9062500000000001  1.0000
  Mn  Mn1952    1.0  0.09375  0.9687499999999998  0.9062500000000001  1.0000
  Mn  Mn1953    1.0  0.125  0.0  0.875  1.0000
  Mn  Mn1954    1.0  0.125  0.12499999999999997  0.875  1.0000
  Mn  Mn1955    1.0  0.125  0.24999999999999994  0.875  1.0000
  Mn  Mn1956    1.0  0.125  0.37499999999999994  0.875  1.0000
  Mn  Mn1957    1.0  0.125  0.5625  0.875  1.0000
  Mn  Mn1958    1.0  0.125  0.6875  0.875  1.0000
  Mn  Mn1959    1.0  0.125  0.8124999999999998  0.875  1.0000
  Mn  Mn1960    1.0  0.125  0.9374999999999998  0.875  1.0000
  Mn  Mn1961    1.0  0.15625000000000006  0.53125  0.84375  1.0000
  Mn  Mn1962    1.0  0.15625000000000006  0.59375  0.84375  1.0000
  Mn  Mn1963    1.0  0.15625000000000006  0.65625  0.84375  1.0000
  Mn  Mn1964    1.0  0.15625000000000006  0.7187499999999999  0.84375  1.0000
  Mn  Mn1965    1.0  0.15625000000000006  0.7812499999999999  0.84375  1.0000
  Mn  Mn1966    1.0  0.15625000000000006  0.8437499999999998  0.84375  1.0000
  Mn  Mn1967    1.0  0.15625000000000006  0.9062499999999998  0.84375  1.0000
  Mn  Mn1968    1.0  0.15625000000000006  0.9687499999999998  0.84375  1.0000
  Mn  Mn1969    1.0  0.1875  0.062499999999999986  0.8125  1.0000
  Mn  Mn1970    1.0  0.1875  0.18749999999999997  0.8125  1.0000
  Mn  Mn1971    1.0  0.1875  0.3125  0.8125  1.0000
  Mn  Mn1972    1.0  0.1875  0.4374999999999999  0.8125  1.0000
  Mn  Mn1973    1.0  0.1875  0.4999999999999999  0.8125  1.0000
  Mn  Mn1974    1.0  0.1875  0.625  0.8125  1.0000
  Mn  Mn1975    1.0  0.1875  0.7499999999999999  0.8125  1.0000
  Mn  Mn1976    1.0  0.1875  0.8749999999999998  0.8125  1.0000
  Mn  Mn1977    1.0  0.21875  0.53125  0.78125  1.0000
  Mn  Mn1978    1.0  0.21875  0.59375  0.78125  1.0000
  Mn  Mn1979    1.0  0.21875  0.65625  0.78125  1.0000
  Mn  Mn1980    1.0  0.21875  0.7187499999999999  0.78125  1.0000
  Mn  Mn1981    1.0  0.21875  0.7812499999999999  0.78125  1.0000
  Mn  Mn1982    1.0  0.21875  0.8437499999999998  0.78125  1.0000
  Mn  Mn1983    1.0  0.21875  0.9062499999999998  0.78125  1.0000
  Mn  Mn1984    1.0  0.21875  0.9687499999999998  0.78125  1.0000
  Mn  Mn1985    1.0  0.25  0.0  0.75  1.0000
  Mn  Mn1986    1.0  0.25  0.12499999999999997  0.75  1.0000
  Mn  Mn1987    1.0  0.25  0.24999999999999994  0.75  1.0000
  Mn  Mn1988    1.0  0.25  0.37499999999999994  0.75  1.0000
  Mn  Mn1989    1.0  0.25  0.5625  0.75  1.0000
  Mn  Mn1990    1.0  0.25  0.6875  0.75  1.0000
  Mn  Mn1991    1.0  0.25  0.8124999999999998  0.75  1.0000
  Mn  Mn1992    1.0  0.25  0.9374999999999998  0.75  1.0000
  Mn  Mn1993    1.0  0.28125  0.53125  0.71875  1.0000
  Mn  Mn1994    1.0  0.28125  0.59375  0.71875  1.0000
  Mn  Mn1995    1.0  0.28125  0.65625  0.71875  1.0000
  Mn  Mn1996    1.0  0.28125  0.7187499999999999  0.71875  1.0000
  Mn  Mn1997    1.0  0.28125  0.7812499999999999  0.71875  1.0000
  Mn  Mn1998    1.0  0.28125  0.8437499999999998  0.71875  1.0000
  Mn  Mn1999    1.0  0.28125  0.9062499999999998  0.71875  1.0000
  Mn  Mn2000    1.0  0.28125  0.9687499999999998  0.71875  1.0000
  Mn  Mn2001    1.0  0.3125000000000001  0.062499999999999986  0.6875000000000001  1.0000
  Mn  Mn2002    1.0  0.3125000000000001  0.18749999999999997  0.6875000000000001  1.0000
  Mn  Mn2003    1.0  0.3125000000000001  0.3125  0.6875000000000001  1.0000
  Mn  Mn2004    1.0  0.3125000000000001  0.4374999999999999  0.6875000000000001  1.0000
  Mn  Mn2005    1.0  0.3125000000000001  0.4999999999999999  0.6875000000000001  1.0000
  Mn  Mn2006    1.0  0.3125000000000001  0.625  0.6875000000000001  1.0000
  Mn  Mn2007    1.0  0.3125000000000001  0.7499999999999999  0.6875000000000001  1.0000
  Mn  Mn2008    1.0  0.3125000000000001  0.8749999999999998  0.6875000000000001  1.0000
  Mn  Mn2009    1.0  0.3437500000000001  0.53125  0.6562500000000001  1.0000
  Mn  Mn2010    1.0  0.3437500000000001  0.59375  0.6562500000000001  1.0000
  Mn  Mn2011    1.0  0.3437500000000001  0.65625  0.6562500000000001  1.0000
  Mn  Mn2012    1.0  0.3437500000000001  0.7187499999999999  0.6562500000000001  1.0000
  Mn  Mn2013    1.0  0.3437500000000001  0.7812499999999999  0.6562500000000001  1.0000
  Mn  Mn2014    1.0  0.3437500000000001  0.8437499999999998  0.6562500000000001  1.0000
  Mn  Mn2015    1.0  0.3437500000000001  0.9062499999999998  0.6562500000000001  1.0000
  Mn  Mn2016    1.0  0.3437500000000001  0.9687499999999998  0.6562500000000001  1.0000
  Mn  Mn2017    1.0  0.375  0.0  0.6250000000000001  1.0000
  Mn  Mn2018    1.0  0.375  0.12499999999999997  0.6250000000000001  1.0000
  Mn  Mn2019    1.0  0.375  0.24999999999999994  0.6250000000000001  1.0000
  Mn  Mn2020    1.0  0.375  0.37499999999999994  0.6250000000000001  1.0000
  Mn  Mn2021    1.0  0.375  0.5625  0.6250000000000001  1.0000
  Mn  Mn2022    1.0  0.375  0.6875  0.6250000000000001  1.0000
  Mn  Mn2023    1.0  0.375  0.8124999999999998  0.6250000000000001  1.0000
  Mn  Mn2024    1.0  0.375  0.9374999999999998  0.6250000000000001  1.0000
  Mn  Mn2025    1.0  0.40625  0.53125  0.5937500000000001  1.0000
  Mn  Mn2026    1.0  0.40625  0.59375  0.5937500000000001  1.0000
  Mn  Mn2027    1.0  0.40625  0.65625  0.5937500000000001  1.0000
  Mn  Mn2028    1.0  0.40625  0.7187499999999999  0.5937500000000001  1.0000
  Mn  Mn2029    1.0  0.40625  0.7812499999999999  0.5937500000000001  1.0000
  Mn  Mn2030    1.0  0.40625  0.8437499999999998  0.5937500000000001  1.0000
  Mn  Mn2031    1.0  0.40625  0.9062499999999998  0.5937500000000001  1.0000
  Mn  Mn2032    1.0  0.40625  0.9687499999999998  0.5937500000000001  1.0000
  Mn  Mn2033    1.0  0.4375  0.062499999999999986  0.5625000000000001  1.0000
  Mn  Mn2034    1.0  0.4375  0.18749999999999997  0.5625000000000001  1.0000
  Mn  Mn2035    1.0  0.4375  0.3125  0.5625000000000001  1.0000
  Mn  Mn2036    1.0  0.4375  0.4374999999999999  0.5625000000000001  1.0000
  Mn  Mn2037    1.0  0.4375  0.4999999999999999  0.5625000000000001  1.0000
  Mn  Mn2038    1.0  0.4375  0.625  0.5625000000000001  1.0000
  Mn  Mn2039    1.0  0.4375  0.7499999999999999  0.5625000000000001  1.0000
  Mn  Mn2040    1.0  0.4375  0.8749999999999998  0.5625000000000001  1.0000
  Mn  Mn2041    1.0  0.46875  0.53125  0.53125  1.0000
  Mn  Mn2042    1.0  0.46875  0.59375  0.53125  1.0000
  Mn  Mn2043    1.0  0.46875  0.65625  0.53125  1.0000
  Mn  Mn2044    1.0  0.46875  0.7187499999999999  0.53125  1.0000
  Mn  Mn2045    1.0  0.46875  0.7812499999999999  0.53125  1.0000
  Mn  Mn2046    1.0  0.46875  0.8437499999999998  0.53125  1.0000
  Mn  Mn2047    1.0  0.46875  0.9062499999999998  0.53125  1.0000
  Mn  Mn2048    1.0  0.46875  0.9687499999999998  0.53125  1.0000
  Mn  Mn2049    1.0  0.49999999999999994  0.0  0.5  1.0000
  Mn  Mn2050    1.0  0.49999999999999994  0.12499999999999997  0.5  1.0000
  Mn  Mn2051    1.0  0.49999999999999994  0.24999999999999994  0.5  1.0000
  Mn  Mn2052    1.0  0.49999999999999994  0.37499999999999994  0.5  1.0000
  Mn  Mn2053    1.0  0.49999999999999994  0.5625  0.5  1.0000
  Mn  Mn2054    1.0  0.49999999999999994  0.6875  0.5  1.0000
  Mn  Mn2055    1.0  0.49999999999999994  0.8124999999999998  0.5  1.0000
  Mn  Mn2056    1.0  0.49999999999999994  0.9374999999999998  0.5  1.0000
  Mn  Mn2057    1.0  0.53125  0.53125  0.4687499999999999  1.0000
  Mn  Mn2058    1.0  0.53125  0.59375  0.4687499999999999  1.0000
  Mn  Mn2059    1.0  0.53125  0.65625  0.4687499999999999  1.0000
  Mn  Mn2060    1.0  0.53125  0.7187499999999999  0.4687499999999999  1.0000
  Mn  Mn2061    1.0  0.53125  0.7812499999999999  0.4687499999999999  1.0000
  Mn  Mn2062    1.0  0.53125  0.8437499999999998  0.4687499999999999  1.0000
  Mn  Mn2063    1.0  0.53125  0.9062499999999998  0.4687499999999999  1.0000
  Mn  Mn2064    1.0  0.53125  0.9687499999999998  0.4687499999999999  1.0000
  Mn  Mn2065    1.0  0.5625  0.062499999999999986  0.43749999999999994  1.0000
  Mn  Mn2066    1.0  0.5625  0.18749999999999997  0.43749999999999994  1.0000
  Mn  Mn2067    1.0  0.5625  0.3125  0.43749999999999994  1.0000
  Mn  Mn2068    1.0  0.5625  0.4374999999999999  0.43749999999999994  1.0000
  Mn  Mn2069    1.0  0.5625  0.4999999999999999  0.43749999999999994  1.0000
  Mn  Mn2070    1.0  0.5625  0.625  0.43749999999999994  1.0000
  Mn  Mn2071    1.0  0.5625  0.7499999999999999  0.43749999999999994  1.0000
  Mn  Mn2072    1.0  0.5625  0.8749999999999998  0.43749999999999994  1.0000
  Mn  Mn2073    1.0  0.59375  0.53125  0.40624999999999994  1.0000
  Mn  Mn2074    1.0  0.59375  0.59375  0.40624999999999994  1.0000
  Mn  Mn2075    1.0  0.59375  0.65625  0.40624999999999994  1.0000
  Mn  Mn2076    1.0  0.59375  0.7187499999999999  0.40624999999999994  1.0000
  Mn  Mn2077    1.0  0.59375  0.7812499999999999  0.40624999999999994  1.0000
  Mn  Mn2078    1.0  0.59375  0.8437499999999998  0.40624999999999994  1.0000
  Mn  Mn2079    1.0  0.59375  0.9062499999999998  0.40624999999999994  1.0000
  Mn  Mn2080    1.0  0.59375  0.9687499999999998  0.40624999999999994  1.0000
  Mn  Mn2081    1.0  0.6250000000000002  0.0  0.37499999999999994  1.0000
  Mn  Mn2082    1.0  0.6250000000000002  0.12499999999999997  0.37499999999999994  1.0000
  Mn  Mn2083    1.0  0.6250000000000002  0.24999999999999994  0.37499999999999994  1.0000
  Mn  Mn2084    1.0  0.6250000000000002  0.37499999999999994  0.37499999999999994  1.0000
  Mn  Mn2085    1.0  0.6250000000000002  0.5625  0.37499999999999994  1.0000
  Mn  Mn2086    1.0  0.6250000000000002  0.6875  0.37499999999999994  1.0000
  Mn  Mn2087    1.0  0.6250000000000002  0.8124999999999998  0.37499999999999994  1.0000
  Mn  Mn2088    1.0  0.6250000000000002  0.9374999999999998  0.37499999999999994  1.0000
  Mn  Mn2089    1.0  0.65625  0.53125  0.34375000000000006  1.0000
  Mn  Mn2090    1.0  0.65625  0.59375  0.34375000000000006  1.0000
  Mn  Mn2091    1.0  0.65625  0.65625  0.34375000000000006  1.0000
  Mn  Mn2092    1.0  0.65625  0.7187499999999999  0.34375000000000006  1.0000
  Mn  Mn2093    1.0  0.65625  0.7812499999999999  0.34375000000000006  1.0000
  Mn  Mn2094    1.0  0.65625  0.8437499999999998  0.34375000000000006  1.0000
  Mn  Mn2095    1.0  0.65625  0.9062499999999998  0.34375000000000006  1.0000
  Mn  Mn2096    1.0  0.65625  0.9687499999999998  0.34375000000000006  1.0000
  Mn  Mn2097    1.0  0.6875000000000002  0.062499999999999986  0.31250000000000006  1.0000
  Mn  Mn2098    1.0  0.6875000000000002  0.18749999999999997  0.31250000000000006  1.0000
  Mn  Mn2099    1.0  0.6875000000000002  0.3125  0.31250000000000006  1.0000
  Mn  Mn2100    1.0  0.6875000000000002  0.4374999999999999  0.31250000000000006  1.0000
  Mn  Mn2101    1.0  0.6875000000000002  0.4999999999999999  0.31250000000000006  1.0000
  Mn  Mn2102    1.0  0.6875000000000002  0.625  0.31250000000000006  1.0000
  Mn  Mn2103    1.0  0.6875000000000002  0.7499999999999999  0.31250000000000006  1.0000
  Mn  Mn2104    1.0  0.6875000000000002  0.8749999999999998  0.31250000000000006  1.0000
  Mn  Mn2105    1.0  0.71875  0.53125  0.2812499999999999  1.0000
  Mn  Mn2106    1.0  0.71875  0.59375  0.2812499999999999  1.0000
  Mn  Mn2107    1.0  0.71875  0.65625  0.2812499999999999  1.0000
  Mn  Mn2108    1.0  0.71875  0.7187499999999999  0.2812499999999999  1.0000
  Mn  Mn2109    1.0  0.71875  0.7812499999999999  0.2812499999999999  1.0000
  Mn  Mn2110    1.0  0.71875  0.8437499999999998  0.2812499999999999  1.0000
  Mn  Mn2111    1.0  0.71875  0.9062499999999998  0.2812499999999999  1.0000
  Mn  Mn2112    1.0  0.71875  0.9687499999999998  0.2812499999999999  1.0000
  Mn  Mn2113    1.0  0.75  0.0  0.25  1.0000
  Mn  Mn2114    1.0  0.75  0.12499999999999997  0.25  1.0000
  Mn  Mn2115    1.0  0.75  0.24999999999999994  0.25  1.0000
  Mn  Mn2116    1.0  0.75  0.37499999999999994  0.25  1.0000
  Mn  Mn2117    1.0  0.75  0.5625  0.25  1.0000
  Mn  Mn2118    1.0  0.75  0.6875  0.25  1.0000
  Mn  Mn2119    1.0  0.75  0.8124999999999998  0.25  1.0000
  Mn  Mn2120    1.0  0.75  0.9374999999999998  0.25  1.0000
  Mn  Mn2121    1.0  0.78125  0.53125  0.21875000000000006  1.0000
  Mn  Mn2122    1.0  0.78125  0.59375  0.21875000000000006  1.0000
  Mn  Mn2123    1.0  0.78125  0.65625  0.21875000000000006  1.0000
  Mn  Mn2124    1.0  0.78125  0.7187499999999999  0.21875000000000006  1.0000
  Mn  Mn2125    1.0  0.78125  0.7812499999999999  0.21875000000000006  1.0000
  Mn  Mn2126    1.0  0.78125  0.8437499999999998  0.21875000000000006  1.0000
  Mn  Mn2127    1.0  0.78125  0.9062499999999998  0.21875000000000006  1.0000
  Mn  Mn2128    1.0  0.78125  0.9687499999999998  0.21875000000000006  1.0000
  Mn  Mn2129    1.0  0.8125  0.062499999999999986  0.18750000000000006  1.0000
  Mn  Mn2130    1.0  0.8125  0.18749999999999997  0.18750000000000006  1.0000
  Mn  Mn2131    1.0  0.8125  0.3125  0.18750000000000006  1.0000
  Mn  Mn2132    1.0  0.8125  0.4374999999999999  0.18750000000000006  1.0000
  Mn  Mn2133    1.0  0.8125  0.4999999999999999  0.18750000000000006  1.0000
  Mn  Mn2134    1.0  0.8125  0.625  0.18750000000000006  1.0000
  Mn  Mn2135    1.0  0.8125  0.7499999999999999  0.18750000000000006  1.0000
  Mn  Mn2136    1.0  0.8125  0.8749999999999998  0.18750000000000006  1.0000
  Mn  Mn2137    1.0  0.8437500000000002  0.53125  0.15625000000000003  1.0000
  Mn  Mn2138    1.0  0.8437500000000002  0.59375  0.15625000000000003  1.0000
  Mn  Mn2139    1.0  0.8437500000000002  0.65625  0.15625000000000003  1.0000
  Mn  Mn2140    1.0  0.8437500000000002  0.7187499999999999  0.15625000000000003  1.0000
  Mn  Mn2141    1.0  0.8437500000000002  0.7812499999999999  0.15625000000000003  1.0000
  Mn  Mn2142    1.0  0.8437500000000002  0.8437499999999998  0.15625000000000003  1.0000
  Mn  Mn2143    1.0  0.8437500000000002  0.9062499999999998  0.15625000000000003  1.0000
  Mn  Mn2144    1.0  0.8437500000000002  0.9687499999999998  0.15625000000000003  1.0000
  Mn  Mn2145    1.0  0.875  0.0  0.12500000000000006  1.0000
  Mn  Mn2146    1.0  0.875  0.12499999999999997  0.12500000000000006  1.0000
  Mn  Mn2147    1.0  0.875  0.24999999999999994  0.12500000000000006  1.0000
  Mn  Mn2148    1.0  0.875  0.37499999999999994  0.12500000000000006  1.0000
  Mn  Mn2149    1.0  0.875  0.5625  0.12500000000000006  1.0000
  Mn  Mn2150    1.0  0.875  0.6875  0.12500000000000006  1.0000
  Mn  Mn2151    1.0  0.875  0.8124999999999998  0.12500000000000006  1.0000
  Mn  Mn2152    1.0  0.875  0.9374999999999998  0.12500000000000006  1.0000
  Mn  Mn2153    1.0  0.9062500000000002  0.53125  0.09375000000000004  1.0000
  Mn  Mn2154    1.0  0.9062500000000002  0.59375  0.09375000000000004  1.0000
  Mn  Mn2155    1.0  0.9062500000000002  0.65625  0.09375000000000004  1.0000
  Mn  Mn2156    1.0  0.9062500000000002  0.7187499999999999  0.09375000000000004  1.0000
  Mn  Mn2157    1.0  0.9062500000000002  0.7812499999999999  0.09375000000000004  1.0000
  Mn  Mn2158    1.0  0.9062500000000002  0.8437499999999998  0.09375000000000004  1.0000
  Mn  Mn2159    1.0  0.9062500000000002  0.9062499999999998  0.09375000000000004  1.0000
  Mn  Mn2160    1.0  0.9062500000000002  0.9687499999999998  0.09375000000000004  1.0000
  Mn  Mn2161    1.0  0.9375  0.062499999999999986  0.06250000000000006  1.0000
  Mn  Mn2162    1.0  0.9375  0.18749999999999997  0.06250000000000006  1.0000
  Mn  Mn2163    1.0  0.9375  0.3125  0.06250000000000006  1.0000
  Mn  Mn2164    1.0  0.9375  0.4374999999999999  0.06250000000000006  1.0000
  Mn  Mn2165    1.0  0.9375  0.4999999999999999  0.06250000000000006  1.0000
  Mn  Mn2166    1.0  0.9375  0.625  0.06250000000000006  1.0000
  Mn  Mn2167    1.0  0.9375  0.7499999999999999  0.06250000000000006  1.0000
  Mn  Mn2168    1.0  0.9375  0.8749999999999998  0.06250000000000006  1.0000
  Mn  Mn2169    1.0  0.9687500000000002  0.53125  0.03125000000000005  1.0000
  Mn  Mn2170    1.0  0.9687500000000002  0.59375  0.03125000000000005  1.0000
  Mn  Mn2171    1.0  0.9687500000000002  0.65625  0.03125000000000005  1.0000
  Mn  Mn2172    1.0  0.9687500000000002  0.7187499999999999  0.03125000000000005  1.0000
  Mn  Mn2173    1.0  0.9687500000000002  0.7812499999999999  0.03125000000000005  1.0000
  Mn  Mn2174    1.0  0.9687500000000002  0.8437499999999998  0.03125000000000005  1.0000
  Mn  Mn2175    1.0  0.9687500000000002  0.9062499999999998  0.03125000000000005  1.0000
  Mn  Mn2176    1.0  0.9687500000000002  0.9687499999999998  0.03125000000000005  1.0000
  Mn  Mn2177    1.0  0.0625  0.062499999999999986  0.0  1.0000
  Mn  Mn2178    1.0  0.0625  0.18749999999999997  0.0  1.0000
  Mn  Mn2179    1.0  0.0625  0.3125  0.0  1.0000
  Mn  Mn2180    1.0  0.0625  0.4374999999999999  0.0  1.0000
  Mn  Mn2181    1.0  0.0625  0.4999999999999999  0.0  1.0000
  Mn  Mn2182    1.0  0.0625  0.625  0.0  1.0000
  Mn  Mn2183    1.0  0.0625  0.7499999999999999  0.0  1.0000
  Mn  Mn2184    1.0  0.0625  0.8749999999999998  0.0  1.0000
  Mn  Mn2185    1.0  0.09375  0.031249999999999993  0.9687500000000001  1.0000
  Mn  Mn2186    1.0  0.09375  0.09374999999999999  0.9687500000000001  1.0000
  Mn  Mn2187    1.0  0.09375  0.15625  0.9687500000000001  1.0000
  Mn  Mn2188    1.0  0.09375  0.21874999999999994  0.9687500000000001  1.0000
  Mn  Mn2189    1.0  0.09375  0.28125  0.9687500000000001  1.0000
  Mn  Mn2190    1.0  0.09375  0.34375  0.9687500000000001  1.0000
  Mn  Mn2191    1.0  0.09375  0.4062499999999999  0.9687500000000001  1.0000
  Mn  Mn2192    1.0  0.09375  0.4687499999999999  0.9687500000000001  1.0000
  Mn  Mn2193    1.0  0.125  0.0  0.9375000000000001  1.0000
  Mn  Mn2194    1.0  0.125  0.12499999999999997  0.9375000000000001  1.0000
  Mn  Mn2195    1.0  0.125  0.24999999999999994  0.9375000000000001  1.0000
  Mn  Mn2196    1.0  0.125  0.37499999999999994  0.9375000000000001  1.0000
  Mn  Mn2197    1.0  0.125  0.5625  0.9375000000000001  1.0000
  Mn  Mn2198    1.0  0.125  0.6875  0.9375000000000001  1.0000
  Mn  Mn2199    1.0  0.125  0.8124999999999998  0.9375000000000001  1.0000
  Mn  Mn2200    1.0  0.125  0.9374999999999998  0.9375000000000001  1.0000
  Mn  Mn2201    1.0  0.15625000000000006  0.031249999999999993  0.9062500000000001  1.0000
  Mn  Mn2202    1.0  0.15625000000000006  0.09374999999999999  0.9062500000000001  1.0000
  Mn  Mn2203    1.0  0.15625000000000006  0.15625  0.9062500000000001  1.0000
  Mn  Mn2204    1.0  0.15625000000000006  0.21874999999999994  0.9062500000000001  1.0000
  Mn  Mn2205    1.0  0.15625000000000006  0.28125  0.9062500000000001  1.0000
  Mn  Mn2206    1.0  0.15625000000000006  0.34375  0.9062500000000001  1.0000
  Mn  Mn2207    1.0  0.15625000000000006  0.4062499999999999  0.9062500000000001  1.0000
  Mn  Mn2208    1.0  0.15625000000000006  0.4687499999999999  0.9062500000000001  1.0000
  Mn  Mn2209    1.0  0.1875  0.062499999999999986  0.875  1.0000
  Mn  Mn2210    1.0  0.1875  0.18749999999999997  0.875  1.0000
  Mn  Mn2211    1.0  0.1875  0.3125  0.875  1.0000
  Mn  Mn2212    1.0  0.1875  0.4374999999999999  0.875  1.0000
  Mn  Mn2213    1.0  0.1875  0.4999999999999999  0.875  1.0000
  Mn  Mn2214    1.0  0.1875  0.625  0.875  1.0000
  Mn  Mn2215    1.0  0.1875  0.7499999999999999  0.875  1.0000
  Mn  Mn2216    1.0  0.1875  0.8749999999999998  0.875  1.0000
  Mn  Mn2217    1.0  0.21875  0.031249999999999993  0.84375  1.0000
  Mn  Mn2218    1.0  0.21875  0.09374999999999999  0.84375  1.0000
  Mn  Mn2219    1.0  0.21875  0.15625  0.84375  1.0000
  Mn  Mn2220    1.0  0.21875  0.21874999999999994  0.84375  1.0000
  Mn  Mn2221    1.0  0.21875  0.28125  0.84375  1.0000
  Mn  Mn2222    1.0  0.21875  0.34375  0.84375  1.0000
  Mn  Mn2223    1.0  0.21875  0.4062499999999999  0.84375  1.0000
  Mn  Mn2224    1.0  0.21875  0.4687499999999999  0.84375  1.0000
  Mn  Mn2225    1.0  0.25  0.0  0.8125  1.0000
  Mn  Mn2226    1.0  0.25  0.12499999999999997  0.8125  1.0000
  Mn  Mn2227    1.0  0.25  0.24999999999999994  0.8125  1.0000
  Mn  Mn2228    1.0  0.25  0.37499999999999994  0.8125  1.0000
  Mn  Mn2229    1.0  0.25  0.5625  0.8125  1.0000
  Mn  Mn2230    1.0  0.25  0.6875  0.8125  1.0000
  Mn  Mn2231    1.0  0.25  0.8124999999999998  0.8125  1.0000
  Mn  Mn2232    1.0  0.25  0.9374999999999998  0.8125  1.0000
  Mn  Mn2233    1.0  0.28125  0.031249999999999993  0.78125  1.0000
  Mn  Mn2234    1.0  0.28125  0.09374999999999999  0.78125  1.0000
  Mn  Mn2235    1.0  0.28125  0.15625  0.78125  1.0000
  Mn  Mn2236    1.0  0.28125  0.21874999999999994  0.78125  1.0000
  Mn  Mn2237    1.0  0.28125  0.28125  0.78125  1.0000
  Mn  Mn2238    1.0  0.28125  0.34375  0.78125  1.0000
  Mn  Mn2239    1.0  0.28125  0.4062499999999999  0.78125  1.0000
  Mn  Mn2240    1.0  0.28125  0.4687499999999999  0.78125  1.0000
  Mn  Mn2241    1.0  0.3125000000000001  0.062499999999999986  0.75  1.0000
  Mn  Mn2242    1.0  0.3125000000000001  0.18749999999999997  0.75  1.0000
  Mn  Mn2243    1.0  0.3125000000000001  0.3125  0.75  1.0000
  Mn  Mn2244    1.0  0.3125000000000001  0.4374999999999999  0.75  1.0000
  Mn  Mn2245    1.0  0.3125000000000001  0.4999999999999999  0.75  1.0000
  Mn  Mn2246    1.0  0.3125000000000001  0.625  0.75  1.0000
  Mn  Mn2247    1.0  0.3125000000000001  0.7499999999999999  0.75  1.0000
  Mn  Mn2248    1.0  0.3125000000000001  0.8749999999999998  0.75  1.0000
  Mn  Mn2249    1.0  0.3437500000000001  0.031249999999999993  0.71875  1.0000
  Mn  Mn2250    1.0  0.3437500000000001  0.09374999999999999  0.71875  1.0000
  Mn  Mn2251    1.0  0.3437500000000001  0.15625  0.71875  1.0000
  Mn  Mn2252    1.0  0.3437500000000001  0.21874999999999994  0.71875  1.0000
  Mn  Mn2253    1.0  0.3437500000000001  0.28125  0.71875  1.0000
  Mn  Mn2254    1.0  0.3437500000000001  0.34375  0.71875  1.0000
  Mn  Mn2255    1.0  0.3437500000000001  0.4062499999999999  0.71875  1.0000
  Mn  Mn2256    1.0  0.3437500000000001  0.4687499999999999  0.71875  1.0000
  Mn  Mn2257    1.0  0.375  0.0  0.6875000000000001  1.0000
  Mn  Mn2258    1.0  0.375  0.12499999999999997  0.6875000000000001  1.0000
  Mn  Mn2259    1.0  0.375  0.24999999999999994  0.6875000000000001  1.0000
  Mn  Mn2260    1.0  0.375  0.37499999999999994  0.6875000000000001  1.0000
  Mn  Mn2261    1.0  0.375  0.5625  0.6875000000000001  1.0000
  Mn  Mn2262    1.0  0.375  0.6875  0.6875000000000001  1.0000
  Mn  Mn2263    1.0  0.375  0.8124999999999998  0.6875000000000001  1.0000
  Mn  Mn2264    1.0  0.375  0.9374999999999998  0.6875000000000001  1.0000
  Mn  Mn2265    1.0  0.40625  0.031249999999999993  0.6562500000000001  1.0000
  Mn  Mn2266    1.0  0.40625  0.09374999999999999  0.6562500000000001  1.0000
  Mn  Mn2267    1.0  0.40625  0.15625  0.6562500000000001  1.0000
  Mn  Mn2268    1.0  0.40625  0.21874999999999994  0.6562500000000001  1.0000
  Mn  Mn2269    1.0  0.40625  0.28125  0.6562500000000001  1.0000
  Mn  Mn2270    1.0  0.40625  0.34375  0.6562500000000001  1.0000
  Mn  Mn2271    1.0  0.40625  0.4062499999999999  0.6562500000000001  1.0000
  Mn  Mn2272    1.0  0.40625  0.4687499999999999  0.6562500000000001  1.0000
  Mn  Mn2273    1.0  0.4375  0.062499999999999986  0.6250000000000001  1.0000
  Mn  Mn2274    1.0  0.4375  0.18749999999999997  0.6250000000000001  1.0000
  Mn  Mn2275    1.0  0.4375  0.3125  0.6250000000000001  1.0000
  Mn  Mn2276    1.0  0.4375  0.4374999999999999  0.6250000000000001  1.0000
  Mn  Mn2277    1.0  0.4375  0.4999999999999999  0.6250000000000001  1.0000
  Mn  Mn2278    1.0  0.4375  0.625  0.6250000000000001  1.0000
  Mn  Mn2279    1.0  0.4375  0.7499999999999999  0.6250000000000001  1.0000
  Mn  Mn2280    1.0  0.4375  0.8749999999999998  0.6250000000000001  1.0000
  Mn  Mn2281    1.0  0.46875  0.031249999999999993  0.5937500000000001  1.0000
  Mn  Mn2282    1.0  0.46875  0.09374999999999999  0.5937500000000001  1.0000
  Mn  Mn2283    1.0  0.46875  0.15625  0.5937500000000001  1.0000
  Mn  Mn2284    1.0  0.46875  0.21874999999999994  0.5937500000000001  1.0000
  Mn  Mn2285    1.0  0.46875  0.28125  0.5937500000000001  1.0000
  Mn  Mn2286    1.0  0.46875  0.34375  0.5937500000000001  1.0000
  Mn  Mn2287    1.0  0.46875  0.4062499999999999  0.5937500000000001  1.0000
  Mn  Mn2288    1.0  0.46875  0.4687499999999999  0.5937500000000001  1.0000
  Mn  Mn2289    1.0  0.49999999999999994  0.0  0.5625000000000001  1.0000
  Mn  Mn2290    1.0  0.49999999999999994  0.12499999999999997  0.5625000000000001  1.0000
  Mn  Mn2291    1.0  0.49999999999999994  0.24999999999999994  0.5625000000000001  1.0000
  Mn  Mn2292    1.0  0.49999999999999994  0.37499999999999994  0.5625000000000001  1.0000
  Mn  Mn2293    1.0  0.49999999999999994  0.5625  0.5625000000000001  1.0000
  Mn  Mn2294    1.0  0.49999999999999994  0.6875  0.5625000000000001  1.0000
  Mn  Mn2295    1.0  0.49999999999999994  0.8124999999999998  0.5625000000000001  1.0000
  Mn  Mn2296    1.0  0.49999999999999994  0.9374999999999998  0.5625000000000001  1.0000
  Mn  Mn2297    1.0  0.53125  0.031249999999999993  0.53125  1.0000
  Mn  Mn2298    1.0  0.53125  0.09374999999999999  0.53125  1.0000
  Mn  Mn2299    1.0  0.53125  0.15625  0.53125  1.0000
  Mn  Mn2300    1.0  0.53125  0.21874999999999994  0.53125  1.0000
  Mn  Mn2301    1.0  0.53125  0.28125  0.53125  1.0000
  Mn  Mn2302    1.0  0.53125  0.34375  0.53125  1.0000
  Mn  Mn2303    1.0  0.53125  0.4062499999999999  0.53125  1.0000
  Mn  Mn2304    1.0  0.53125  0.4687499999999999  0.53125  1.0000
  Mn  Mn2305    1.0  0.5625  0.062499999999999986  0.5  1.0000
  Mn  Mn2306    1.0  0.5625  0.18749999999999997  0.5  1.0000
  Mn  Mn2307    1.0  0.5625  0.3125  0.5  1.0000
  Mn  Mn2308    1.0  0.5625  0.4374999999999999  0.5  1.0000
  Mn  Mn2309    1.0  0.5625  0.4999999999999999  0.5  1.0000
  Mn  Mn2310    1.0  0.5625  0.625  0.5  1.0000
  Mn  Mn2311    1.0  0.5625  0.7499999999999999  0.5  1.0000
  Mn  Mn2312    1.0  0.5625  0.8749999999999998  0.5  1.0000
  Mn  Mn2313    1.0  0.59375  0.031249999999999993  0.4687499999999999  1.0000
  Mn  Mn2314    1.0  0.59375  0.09374999999999999  0.4687499999999999  1.0000
  Mn  Mn2315    1.0  0.59375  0.15625  0.4687499999999999  1.0000
  Mn  Mn2316    1.0  0.59375  0.21874999999999994  0.4687499999999999  1.0000
  Mn  Mn2317    1.0  0.59375  0.28125  0.4687499999999999  1.0000
  Mn  Mn2318    1.0  0.59375  0.34375  0.4687499999999999  1.0000
  Mn  Mn2319    1.0  0.59375  0.4062499999999999  0.4687499999999999  1.0000
  Mn  Mn2320    1.0  0.59375  0.4687499999999999  0.4687499999999999  1.0000
  Mn  Mn2321    1.0  0.6250000000000002  0.0  0.43749999999999994  1.0000
  Mn  Mn2322    1.0  0.6250000000000002  0.12499999999999997  0.43749999999999994  1.0000
  Mn  Mn2323    1.0  0.6250000000000002  0.24999999999999994  0.43749999999999994  1.0000
  Mn  Mn2324    1.0  0.6250000000000002  0.37499999999999994  0.43749999999999994  1.0000
  Mn  Mn2325    1.0  0.6250000000000002  0.5625  0.43749999999999994  1.0000
  Mn  Mn2326    1.0  0.6250000000000002  0.6875  0.43749999999999994  1.0000
  Mn  Mn2327    1.0  0.6250000000000002  0.8124999999999998  0.43749999999999994  1.0000
  Mn  Mn2328    1.0  0.6250000000000002  0.9374999999999998  0.43749999999999994  1.0000
  Mn  Mn2329    1.0  0.65625  0.031249999999999993  0.40624999999999994  1.0000
  Mn  Mn2330    1.0  0.65625  0.09374999999999999  0.40624999999999994  1.0000
  Mn  Mn2331    1.0  0.65625  0.15625  0.40624999999999994  1.0000
  Mn  Mn2332    1.0  0.65625  0.21874999999999994  0.40624999999999994  1.0000
  Mn  Mn2333    1.0  0.65625  0.28125  0.40624999999999994  1.0000
  Mn  Mn2334    1.0  0.65625  0.34375  0.40624999999999994  1.0000
  Mn  Mn2335    1.0  0.65625  0.4062499999999999  0.40624999999999994  1.0000
  Mn  Mn2336    1.0  0.65625  0.4687499999999999  0.40624999999999994  1.0000
  Mn  Mn2337    1.0  0.6875000000000002  0.062499999999999986  0.37499999999999994  1.0000
  Mn  Mn2338    1.0  0.6875000000000002  0.18749999999999997  0.37499999999999994  1.0000
  Mn  Mn2339    1.0  0.6875000000000002  0.3125  0.37499999999999994  1.0000
  Mn  Mn2340    1.0  0.6875000000000002  0.4374999999999999  0.37499999999999994  1.0000
  Mn  Mn2341    1.0  0.6875000000000002  0.4999999999999999  0.37499999999999994  1.0000
  Mn  Mn2342    1.0  0.6875000000000002  0.625  0.37499999999999994  1.0000
  Mn  Mn2343    1.0  0.6875000000000002  0.7499999999999999  0.37499999999999994  1.0000
  Mn  Mn2344    1.0  0.6875000000000002  0.8749999999999998  0.37499999999999994  1.0000
  Mn  Mn2345    1.0  0.71875  0.031249999999999993  0.34375000000000006  1.0000
  Mn  Mn2346    1.0  0.71875  0.09374999999999999  0.34375000000000006  1.0000
  Mn  Mn2347    1.0  0.71875  0.15625  0.34375000000000006  1.0000
  Mn  Mn2348    1.0  0.71875  0.21874999999999994  0.34375000000000006  1.0000
  Mn  Mn2349    1.0  0.71875  0.28125  0.34375000000000006  1.0000
  Mn  Mn2350    1.0  0.71875  0.34375  0.34375000000000006  1.0000
  Mn  Mn2351    1.0  0.71875  0.4062499999999999  0.34375000000000006  1.0000
  Mn  Mn2352    1.0  0.71875  0.4687499999999999  0.34375000000000006  1.0000
  Mn  Mn2353    1.0  0.75  0.0  0.31250000000000006  1.0000
  Mn  Mn2354    1.0  0.75  0.12499999999999997  0.31250000000000006  1.0000
  Mn  Mn2355    1.0  0.75  0.24999999999999994  0.31250000000000006  1.0000
  Mn  Mn2356    1.0  0.75  0.37499999999999994  0.31250000000000006  1.0000
  Mn  Mn2357    1.0  0.75  0.5625  0.31250000000000006  1.0000
  Mn  Mn2358    1.0  0.75  0.6875  0.31250000000000006  1.0000
  Mn  Mn2359    1.0  0.75  0.8124999999999998  0.31250000000000006  1.0000
  Mn  Mn2360    1.0  0.75  0.9374999999999998  0.31250000000000006  1.0000
  Mn  Mn2361    1.0  0.78125  0.031249999999999993  0.2812499999999999  1.0000
  Mn  Mn2362    1.0  0.78125  0.09374999999999999  0.2812499999999999  1.0000
  Mn  Mn2363    1.0  0.78125  0.15625  0.2812499999999999  1.0000
  Mn  Mn2364    1.0  0.78125  0.21874999999999994  0.2812499999999999  1.0000
  Mn  Mn2365    1.0  0.78125  0.28125  0.2812499999999999  1.0000
  Mn  Mn2366    1.0  0.78125  0.34375  0.2812499999999999  1.0000
  Mn  Mn2367    1.0  0.78125  0.4062499999999999  0.2812499999999999  1.0000
  Mn  Mn2368    1.0  0.78125  0.4687499999999999  0.2812499999999999  1.0000
  Mn  Mn2369    1.0  0.8125  0.062499999999999986  0.25  1.0000
  Mn  Mn2370    1.0  0.8125  0.18749999999999997  0.25  1.0000
  Mn  Mn2371    1.0  0.8125  0.3125  0.25  1.0000
  Mn  Mn2372    1.0  0.8125  0.4374999999999999  0.25  1.0000
  Mn  Mn2373    1.0  0.8125  0.4999999999999999  0.25  1.0000
  Mn  Mn2374    1.0  0.8125  0.625  0.25  1.0000
  Mn  Mn2375    1.0  0.8125  0.7499999999999999  0.25  1.0000
  Mn  Mn2376    1.0  0.8125  0.8749999999999998  0.25  1.0000
  Mn  Mn2377    1.0  0.8437500000000002  0.031249999999999993  0.21875000000000006  1.0000
  Mn  Mn2378    1.0  0.8437500000000002  0.09374999999999999  0.21875000000000006  1.0000
  Mn  Mn2379    1.0  0.8437500000000002  0.15625  0.21875000000000006  1.0000
  Mn  Mn2380    1.0  0.8437500000000002  0.21874999999999994  0.21875000000000006  1.0000
  Mn  Mn2381    1.0  0.8437500000000002  0.28125  0.21875000000000006  1.0000
  Mn  Mn2382    1.0  0.8437500000000002  0.34375  0.21875000000000006  1.0000
  Mn  Mn2383    1.0  0.8437500000000002  0.4062499999999999  0.21875000000000006  1.0000
  Mn  Mn2384    1.0  0.8437500000000002  0.4687499999999999  0.21875000000000006  1.0000
  Mn  Mn2385    1.0  0.875  0.0  0.18750000000000006  1.0000
  Mn  Mn2386    1.0  0.875  0.12499999999999997  0.18750000000000006  1.0000
  Mn  Mn2387    1.0  0.875  0.24999999999999994  0.18750000000000006  1.0000
  Mn  Mn2388    1.0  0.875  0.37499999999999994  0.18750000000000006  1.0000
  Mn  Mn2389    1.0  0.875  0.5625  0.18750000000000006  1.0000
  Mn  Mn2390    1.0  0.875  0.6875  0.18750000000000006  1.0000
  Mn  Mn2391    1.0  0.875  0.8124999999999998  0.18750000000000006  1.0000
  Mn  Mn2392    1.0  0.875  0.9374999999999998  0.18750000000000006  1.0000
  Mn  Mn2393    1.0  0.9062500000000002  0.031249999999999993  0.15625000000000003  1.0000
  Mn  Mn2394    1.0  0.9062500000000002  0.09374999999999999  0.15625000000000003  1.0000
  Mn  Mn2395    1.0  0.9062500000000002  0.15625  0.15625000000000003  1.0000
  Mn  Mn2396    1.0  0.9062500000000002  0.21874999999999994  0.15625000000000003  1.0000
  Mn  Mn2397    1.0  0.9062500000000002  0.28125  0.15625000000000003  1.0000
  Mn  Mn2398    1.0  0.9062500000000002  0.34375  0.15625000000000003  1.0000
  Mn  Mn2399    1.0  0.9062500000000002  0.4062499999999999  0.15625000000000003  1.0000
  Mn  Mn2400    1.0  0.9062500000000002  0.4687499999999999  0.15625000000000003  1.0000
  Mn  Mn2401    1.0  0.9375  0.062499999999999986  0.12500000000000006  1.0000
  Mn  Mn2402    1.0  0.9375  0.18749999999999997  0.12500000000000006  1.0000
  Mn  Mn2403    1.0  0.9375  0.3125  0.12500000000000006  1.0000
  Mn  Mn2404    1.0  0.9375  0.4374999999999999  0.12500000000000006  1.0000
  Mn  Mn2405    1.0  0.9375  0.4999999999999999  0.12500000000000006  1.0000
  Mn  Mn2406    1.0  0.9375  0.625  0.12500000000000006  1.0000
  Mn  Mn2407    1.0  0.9375  0.7499999999999999  0.12500000000000006  1.0000
  Mn  Mn2408    1.0  0.9375  0.8749999999999998  0.12500000000000006  1.0000
  Mn  Mn2409    1.0  0.9687500000000002  0.031249999999999993  0.09375000000000004  1.0000
  Mn  Mn2410    1.0  0.9687500000000002  0.09374999999999999  0.09375000000000004  1.0000
  Mn  Mn2411    1.0  0.9687500000000002  0.15625  0.09375000000000004  1.0000
  Mn  Mn2412    1.0  0.9687500000000002  0.21874999999999994  0.09375000000000004  1.0000
  Mn  Mn2413    1.0  0.9687500000000002  0.28125  0.09375000000000004  1.0000
  Mn  Mn2414    1.0  0.9687500000000002  0.34375  0.09375000000000004  1.0000
  Mn  Mn2415    1.0  0.9687500000000002  0.4062499999999999  0.09375000000000004  1.0000
  Mn  Mn2416    1.0  0.9687500000000002  0.4687499999999999  0.09375000000000004  1.0000
  Mn  Mn2417    1.0  0.125  0.0  0.0  1.0000
  Mn  Mn2418    1.0  0.125  0.12499999999999997  0.0  1.0000
  Mn  Mn2419    1.0  0.125  0.24999999999999994  0.0  1.0000
  Mn  Mn2420    1.0  0.125  0.37499999999999994  0.0  1.0000
  Mn  Mn2421    1.0  0.125  0.5625  0.0  1.0000
  Mn  Mn2422    1.0  0.125  0.6875  0.0  1.0000
  Mn  Mn2423    1.0  0.125  0.8124999999999998  0.0  1.0000
  Mn  Mn2424    1.0  0.125  0.9374999999999998  0.0  1.0000
  Mn  Mn2425    1.0  0.15625000000000006  0.53125  0.9687500000000001  1.0000
  Mn  Mn2426    1.0  0.15625000000000006  0.59375  0.9687500000000001  1.0000
  Mn  Mn2427    1.0  0.15625000000000006  0.65625  0.9687500000000001  1.0000
  Mn  Mn2428    1.0  0.15625000000000006  0.7187499999999999  0.9687500000000001  1.0000
  Mn  Mn2429    1.0  0.15625000000000006  0.7812499999999999  0.9687500000000001  1.0000
  Mn  Mn2430    1.0  0.15625000000000006  0.8437499999999998  0.9687500000000001  1.0000
  Mn  Mn2431    1.0  0.15625000000000006  0.9062499999999998  0.9687500000000001  1.0000
  Mn  Mn2432    1.0  0.15625000000000006  0.9687499999999998  0.9687500000000001  1.0000
  Mn  Mn2433    1.0  0.1875  0.062499999999999986  0.9375000000000001  1.0000
  Mn  Mn2434    1.0  0.1875  0.18749999999999997  0.9375000000000001  1.0000
  Mn  Mn2435    1.0  0.1875  0.3125  0.9375000000000001  1.0000
  Mn  Mn2436    1.0  0.1875  0.4374999999999999  0.9375000000000001  1.0000
  Mn  Mn2437    1.0  0.1875  0.4999999999999999  0.9375000000000001  1.0000
  Mn  Mn2438    1.0  0.1875  0.625  0.9375000000000001  1.0000
  Mn  Mn2439    1.0  0.1875  0.7499999999999999  0.9375000000000001  1.0000
  Mn  Mn2440    1.0  0.1875  0.8749999999999998  0.9375000000000001  1.0000
  Mn  Mn2441    1.0  0.21875  0.53125  0.9062500000000001  1.0000
  Mn  Mn2442    1.0  0.21875  0.59375  0.9062500000000001  1.0000
  Mn  Mn2443    1.0  0.21875  0.65625  0.9062500000000001  1.0000
  Mn  Mn2444    1.0  0.21875  0.7187499999999999  0.9062500000000001  1.0000
  Mn  Mn2445    1.0  0.21875  0.7812499999999999  0.9062500000000001  1.0000
  Mn  Mn2446    1.0  0.21875  0.8437499999999998  0.9062500000000001  1.0000
  Mn  Mn2447    1.0  0.21875  0.9062499999999998  0.9062500000000001  1.0000
  Mn  Mn2448    1.0  0.21875  0.9687499999999998  0.9062500000000001  1.0000
  Mn  Mn2449    1.0  0.25  0.0  0.875  1.0000
  Mn  Mn2450    1.0  0.25  0.12499999999999997  0.875  1.0000
  Mn  Mn2451    1.0  0.25  0.24999999999999994  0.875  1.0000
  Mn  Mn2452    1.0  0.25  0.37499999999999994  0.875  1.0000
  Mn  Mn2453    1.0  0.25  0.5625  0.875  1.0000
  Mn  Mn2454    1.0  0.25  0.6875  0.875  1.0000
  Mn  Mn2455    1.0  0.25  0.8124999999999998  0.875  1.0000
  Mn  Mn2456    1.0  0.25  0.9374999999999998  0.875  1.0000
  Mn  Mn2457    1.0  0.28125  0.53125  0.84375  1.0000
  Mn  Mn2458    1.0  0.28125  0.59375  0.84375  1.0000
  Mn  Mn2459    1.0  0.28125  0.65625  0.84375  1.0000
  Mn  Mn2460    1.0  0.28125  0.7187499999999999  0.84375  1.0000
  Mn  Mn2461    1.0  0.28125  0.7812499999999999  0.84375  1.0000
  Mn  Mn2462    1.0  0.28125  0.8437499999999998  0.84375  1.0000
  Mn  Mn2463    1.0  0.28125  0.9062499999999998  0.84375  1.0000
  Mn  Mn2464    1.0  0.28125  0.9687499999999998  0.84375  1.0000
  Mn  Mn2465    1.0  0.3125000000000001  0.062499999999999986  0.8125  1.0000
  Mn  Mn2466    1.0  0.3125000000000001  0.18749999999999997  0.8125  1.0000
  Mn  Mn2467    1.0  0.3125000000000001  0.3125  0.8125  1.0000
  Mn  Mn2468    1.0  0.3125000000000001  0.4374999999999999  0.8125  1.0000
  Mn  Mn2469    1.0  0.3125000000000001  0.4999999999999999  0.8125  1.0000
  Mn  Mn2470    1.0  0.3125000000000001  0.625  0.8125  1.0000
  Mn  Mn2471    1.0  0.3125000000000001  0.7499999999999999  0.8125  1.0000
  Mn  Mn2472    1.0  0.3125000000000001  0.8749999999999998  0.8125  1.0000
  Mn  Mn2473    1.0  0.3437500000000001  0.53125  0.78125  1.0000
  Mn  Mn2474    1.0  0.3437500000000001  0.59375  0.78125  1.0000
  Mn  Mn2475    1.0  0.3437500000000001  0.65625  0.78125  1.0000
  Mn  Mn2476    1.0  0.3437500000000001  0.7187499999999999  0.78125  1.0000
  Mn  Mn2477    1.0  0.3437500000000001  0.7812499999999999  0.78125  1.0000
  Mn  Mn2478    1.0  0.3437500000000001  0.8437499999999998  0.78125  1.0000
  Mn  Mn2479    1.0  0.3437500000000001  0.9062499999999998  0.78125  1.0000
  Mn  Mn2480    1.0  0.3437500000000001  0.9687499999999998  0.78125  1.0000
  Mn  Mn2481    1.0  0.375  0.0  0.75  1.0000
  Mn  Mn2482    1.0  0.375  0.12499999999999997  0.75  1.0000
  Mn  Mn2483    1.0  0.375  0.24999999999999994  0.75  1.0000
  Mn  Mn2484    1.0  0.375  0.37499999999999994  0.75  1.0000
  Mn  Mn2485    1.0  0.375  0.5625  0.75  1.0000
  Mn  Mn2486    1.0  0.375  0.6875  0.75  1.0000
  Mn  Mn2487    1.0  0.375  0.8124999999999998  0.75  1.0000
  Mn  Mn2488    1.0  0.375  0.9374999999999998  0.75  1.0000
  Mn  Mn2489    1.0  0.40625  0.53125  0.71875  1.0000
  Mn  Mn2490    1.0  0.40625  0.59375  0.71875  1.0000
  Mn  Mn2491    1.0  0.40625  0.65625  0.71875  1.0000
  Mn  Mn2492    1.0  0.40625  0.7187499999999999  0.71875  1.0000
  Mn  Mn2493    1.0  0.40625  0.7812499999999999  0.71875  1.0000
  Mn  Mn2494    1.0  0.40625  0.8437499999999998  0.71875  1.0000
  Mn  Mn2495    1.0  0.40625  0.9062499999999998  0.71875  1.0000
  Mn  Mn2496    1.0  0.40625  0.9687499999999998  0.71875  1.0000
  Mn  Mn2497    1.0  0.4375  0.062499999999999986  0.6875000000000001  1.0000
  Mn  Mn2498    1.0  0.4375  0.18749999999999997  0.6875000000000001  1.0000
  Mn  Mn2499    1.0  0.4375  0.3125  0.6875000000000001  1.0000
  Mn  Mn2500    1.0  0.4375  0.4374999999999999  0.6875000000000001  1.0000
  Mn  Mn2501    1.0  0.4375  0.4999999999999999  0.6875000000000001  1.0000
  Mn  Mn2502    1.0  0.4375  0.625  0.6875000000000001  1.0000
  Mn  Mn2503    1.0  0.4375  0.7499999999999999  0.6875000000000001  1.0000
  Mn  Mn2504    1.0  0.4375  0.8749999999999998  0.6875000000000001  1.0000
  Mn  Mn2505    1.0  0.46875  0.53125  0.6562500000000001  1.0000
  Mn  Mn2506    1.0  0.46875  0.59375  0.6562500000000001  1.0000
  Mn  Mn2507    1.0  0.46875  0.65625  0.6562500000000001  1.0000
  Mn  Mn2508    1.0  0.46875  0.7187499999999999  0.6562500000000001  1.0000
  Mn  Mn2509    1.0  0.46875  0.7812499999999999  0.6562500000000001  1.0000
  Mn  Mn2510    1.0  0.46875  0.8437499999999998  0.6562500000000001  1.0000
  Mn  Mn2511    1.0  0.46875  0.9062499999999998  0.6562500000000001  1.0000
  Mn  Mn2512    1.0  0.46875  0.9687499999999998  0.6562500000000001  1.0000
  Mn  Mn2513    1.0  0.49999999999999994  0.0  0.6250000000000001  1.0000
  Mn  Mn2514    1.0  0.49999999999999994  0.12499999999999997  0.6250000000000001  1.0000
  Mn  Mn2515    1.0  0.49999999999999994  0.24999999999999994  0.6250000000000001  1.0000
  Mn  Mn2516    1.0  0.49999999999999994  0.37499999999999994  0.6250000000000001  1.0000
  Mn  Mn2517    1.0  0.49999999999999994  0.5625  0.6250000000000001  1.0000
  Mn  Mn2518    1.0  0.49999999999999994  0.6875  0.6250000000000001  1.0000
  Mn  Mn2519    1.0  0.49999999999999994  0.8124999999999998  0.6250000000000001  1.0000
  Mn  Mn2520    1.0  0.49999999999999994  0.9374999999999998  0.6250000000000001  1.0000
  Mn  Mn2521    1.0  0.53125  0.53125  0.5937500000000001  1.0000
  Mn  Mn2522    1.0  0.53125  0.59375  0.5937500000000001  1.0000
  Mn  Mn2523    1.0  0.53125  0.65625  0.5937500000000001  1.0000
  Mn  Mn2524    1.0  0.53125  0.7187499999999999  0.5937500000000001  1.0000
  Mn  Mn2525    1.0  0.53125  0.7812499999999999  0.5937500000000001  1.0000
  Mn  Mn2526    1.0  0.53125  0.8437499999999998  0.5937500000000001  1.0000
  Mn  Mn2527    1.0  0.53125  0.9062499999999998  0.5937500000000001  1.0000
  Mn  Mn2528    1.0  0.53125  0.9687499999999998  0.5937500000000001  1.0000
  Mn  Mn2529    1.0  0.5625  0.062499999999999986  0.5625000000000001  1.0000
  Mn  Mn2530    1.0  0.5625  0.18749999999999997  0.5625000000000001  1.0000
  Mn  Mn2531    1.0  0.5625  0.3125  0.5625000000000001  1.0000
  Mn  Mn2532    1.0  0.5625  0.4374999999999999  0.5625000000000001  1.0000
  Mn  Mn2533    1.0  0.5625  0.4999999999999999  0.5625000000000001  1.0000
  Mn  Mn2534    1.0  0.5625  0.625  0.5625000000000001  1.0000
  Mn  Mn2535    1.0  0.5625  0.7499999999999999  0.5625000000000001  1.0000
  Mn  Mn2536    1.0  0.5625  0.8749999999999998  0.5625000000000001  1.0000
  Mn  Mn2537    1.0  0.59375  0.53125  0.53125  1.0000
  Mn  Mn2538    1.0  0.59375  0.59375  0.53125  1.0000
  Mn  Mn2539    1.0  0.59375  0.65625  0.53125  1.0000
  Mn  Mn2540    1.0  0.59375  0.7187499999999999  0.53125  1.0000
  Mn  Mn2541    1.0  0.59375  0.7812499999999999  0.53125  1.0000
  Mn  Mn2542    1.0  0.59375  0.8437499999999998  0.53125  1.0000
  Mn  Mn2543    1.0  0.59375  0.9062499999999998  0.53125  1.0000
  Mn  Mn2544    1.0  0.59375  0.9687499999999998  0.53125  1.0000
  Mn  Mn2545    1.0  0.6250000000000002  0.0  0.5  1.0000
  Mn  Mn2546    1.0  0.6250000000000002  0.12499999999999997  0.5  1.0000
  Mn  Mn2547    1.0  0.6250000000000002  0.24999999999999994  0.5  1.0000
  Mn  Mn2548    1.0  0.6250000000000002  0.37499999999999994  0.5  1.0000
  Mn  Mn2549    1.0  0.6250000000000002  0.5625  0.5  1.0000
  Mn  Mn2550    1.0  0.6250000000000002  0.6875  0.5  1.0000
  Mn  Mn2551    1.0  0.6250000000000002  0.8124999999999998  0.5  1.0000
  Mn  Mn2552    1.0  0.6250000000000002  0.9374999999999998  0.5  1.0000
  Mn  Mn2553    1.0  0.65625  0.53125  0.4687499999999999  1.0000
  Mn  Mn2554    1.0  0.65625  0.59375  0.4687499999999999  1.0000
  Mn  Mn2555    1.0  0.65625  0.65625  0.4687499999999999  1.0000
  Mn  Mn2556    1.0  0.65625  0.7187499999999999  0.4687499999999999  1.0000
  Mn  Mn2557    1.0  0.65625  0.7812499999999999  0.4687499999999999  1.0000
  Mn  Mn2558    1.0  0.65625  0.8437499999999998  0.4687499999999999  1.0000
  Mn  Mn2559    1.0  0.65625  0.9062499999999998  0.4687499999999999  1.0000
  Mn  Mn2560    1.0  0.65625  0.9687499999999998  0.4687499999999999  1.0000
  Mn  Mn2561    1.0  0.6875000000000002  0.062499999999999986  0.43749999999999994  1.0000
  Mn  Mn2562    1.0  0.6875000000000002  0.18749999999999997  0.43749999999999994  1.0000
  Mn  Mn2563    1.0  0.6875000000000002  0.3125  0.43749999999999994  1.0000
  Mn  Mn2564    1.0  0.6875000000000002  0.4374999999999999  0.43749999999999994  1.0000
  Mn  Mn2565    1.0  0.6875000000000002  0.4999999999999999  0.43749999999999994  1.0000
  Mn  Mn2566    1.0  0.6875000000000002  0.625  0.43749999999999994  1.0000
  Mn  Mn2567    1.0  0.6875000000000002  0.7499999999999999  0.43749999999999994  1.0000
  Mn  Mn2568    1.0  0.6875000000000002  0.8749999999999998  0.43749999999999994  1.0000
  Mn  Mn2569    1.0  0.71875  0.53125  0.40624999999999994  1.0000
  Mn  Mn2570    1.0  0.71875  0.59375  0.40624999999999994  1.0000
  Mn  Mn2571    1.0  0.71875  0.65625  0.40624999999999994  1.0000
  Mn  Mn2572    1.0  0.71875  0.7187499999999999  0.40624999999999994  1.0000
  Mn  Mn2573    1.0  0.71875  0.7812499999999999  0.40624999999999994  1.0000
  Mn  Mn2574    1.0  0.71875  0.8437499999999998  0.40624999999999994  1.0000
  Mn  Mn2575    1.0  0.71875  0.9062499999999998  0.40624999999999994  1.0000
  Mn  Mn2576    1.0  0.71875  0.9687499999999998  0.40624999999999994  1.0000
  Mn  Mn2577    1.0  0.75  0.0  0.37499999999999994  1.0000
  Mn  Mn2578    1.0  0.75  0.12499999999999997  0.37499999999999994  1.0000
  Mn  Mn2579    1.0  0.75  0.24999999999999994  0.37499999999999994  1.0000
  Mn  Mn2580    1.0  0.75  0.37499999999999994  0.37499999999999994  1.0000
  Mn  Mn2581    1.0  0.75  0.5625  0.37499999999999994  1.0000
  Mn  Mn2582    1.0  0.75  0.6875  0.37499999999999994  1.0000
  Mn  Mn2583    1.0  0.75  0.8124999999999998  0.37499999999999994  1.0000
  Mn  Mn2584    1.0  0.75  0.9374999999999998  0.37499999999999994  1.0000
  Mn  Mn2585    1.0  0.78125  0.53125  0.34375000000000006  1.0000
  Mn  Mn2586    1.0  0.78125  0.59375  0.34375000000000006  1.0000
  Mn  Mn2587    1.0  0.78125  0.65625  0.34375000000000006  1.0000
  Mn  Mn2588    1.0  0.78125  0.7187499999999999  0.34375000000000006  1.0000
  Mn  Mn2589    1.0  0.78125  0.7812499999999999  0.34375000000000006  1.0000
  Mn  Mn2590    1.0  0.78125  0.8437499999999998  0.34375000000000006  1.0000
  Mn  Mn2591    1.0  0.78125  0.9062499999999998  0.34375000000000006  1.0000
  Mn  Mn2592    1.0  0.78125  0.9687499999999998  0.34375000000000006  1.0000
  Mn  Mn2593    1.0  0.8125  0.062499999999999986  0.31250000000000006  1.0000
  Mn  Mn2594    1.0  0.8125  0.18749999999999997  0.31250000000000006  1.0000
  Mn  Mn2595    1.0  0.8125  0.3125  0.31250000000000006  1.0000
  Mn  Mn2596    1.0  0.8125  0.4374999999999999  0.31250000000000006  1.0000
  Mn  Mn2597    1.0  0.8125  0.4999999999999999  0.31250000000000006  1.0000
  Mn  Mn2598    1.0  0.8125  0.625  0.31250000000000006  1.0000
  Mn  Mn2599    1.0  0.8125  0.7499999999999999  0.31250000000000006  1.0000
  Mn  Mn2600    1.0  0.8125  0.8749999999999998  0.31250000000000006  1.0000
  Mn  Mn2601    1.0  0.8437500000000002  0.53125  0.2812499999999999  1.0000
  Mn  Mn2602    1.0  0.8437500000000002  0.59375  0.2812499999999999  1.0000
  Mn  Mn2603    1.0  0.8437500000000002  0.65625  0.2812499999999999  1.0000
  Mn  Mn2604    1.0  0.8437500000000002  0.7187499999999999  0.2812499999999999  1.0000
  Mn  Mn2605    1.0  0.8437500000000002  0.7812499999999999  0.2812499999999999  1.0000
  Mn  Mn2606    1.0  0.8437500000000002  0.8437499999999998  0.2812499999999999  1.0000
  Mn  Mn2607    1.0  0.8437500000000002  0.9062499999999998  0.2812499999999999  1.0000
  Mn  Mn2608    1.0  0.8437500000000002  0.9687499999999998  0.2812499999999999  1.0000
  Mn  Mn2609    1.0  0.875  0.0  0.25  1.0000
  Mn  Mn2610    1.0  0.875  0.12499999999999997  0.25  1.0000
  Mn  Mn2611    1.0  0.875  0.24999999999999994  0.25  1.0000
  Mn  Mn2612    1.0  0.875  0.37499999999999994  0.25  1.0000
  Mn  Mn2613    1.0  0.875  0.5625  0.25  1.0000
  Mn  Mn2614    1.0  0.875  0.6875  0.25  1.0000
  Mn  Mn2615    1.0  0.875  0.8124999999999998  0.25  1.0000
  Mn  Mn2616    1.0  0.875  0.9374999999999998  0.25  1.0000
  Mn  Mn2617    1.0  0.9062500000000002  0.53125  0.21875000000000006  1.0000
  Mn  Mn2618    1.0  0.9062500000000002  0.59375  0.21875000000000006  1.0000
  Mn  Mn2619    1.0  0.9062500000000002  0.65625  0.21875000000000006  1.0000
  Mn  Mn2620    1.0  0.9062500000000002  0.7187499999999999  0.21875000000000006  1.0000
  Mn  Mn2621    1.0  0.9062500000000002  0.7812499999999999  0.21875000000000006  1.0000
  Mn  Mn2622    1.0  0.9062500000000002  0.8437499999999998  0.21875000000000006  1.0000
  Mn  Mn2623    1.0  0.9062500000000002  0.9062499999999998  0.21875000000000006  1.0000
  Mn  Mn2624    1.0  0.9062500000000002  0.9687499999999998  0.21875000000000006  1.0000
  Mn  Mn2625    1.0  0.9375  0.062499999999999986  0.18750000000000006  1.0000
  Mn  Mn2626    1.0  0.9375  0.18749999999999997  0.18750000000000006  1.0000
  Mn  Mn2627    1.0  0.9375  0.3125  0.18750000000000006  1.0000
  Mn  Mn2628    1.0  0.9375  0.4374999999999999  0.18750000000000006  1.0000
  Mn  Mn2629    1.0  0.9375  0.4999999999999999  0.18750000000000006  1.0000
  Mn  Mn2630    1.0  0.9375  0.625  0.18750000000000006  1.0000
  Mn  Mn2631    1.0  0.9375  0.7499999999999999  0.18750000000000006  1.0000
  Mn  Mn2632    1.0  0.9375  0.8749999999999998  0.18750000000000006  1.0000
  Mn  Mn2633    1.0  0.9687500000000002  0.53125  0.15625000000000003  1.0000
  Mn  Mn2634    1.0  0.9687500000000002  0.59375  0.15625000000000003  1.0000
  Mn  Mn2635    1.0  0.9687500000000002  0.65625  0.15625000000000003  1.0000
  Mn  Mn2636    1.0  0.9687500000000002  0.7187499999999999  0.15625000000000003  1.0000
  Mn  Mn2637    1.0  0.9687500000000002  0.7812499999999999  0.15625000000000003  1.0000
  Mn  Mn2638    1.0  0.9687500000000002  0.8437499999999998  0.15625000000000003  1.0000
  Mn  Mn2639    1.0  0.9687500000000002  0.9062499999999998  0.15625000000000003  1.0000
  Mn  Mn2640    1.0  0.9687500000000002  0.9687499999999998  0.15625000000000003  1.0000
  Mn  Mn2641    1.0  0.1875  0.062499999999999986  0.0  1.0000
  Mn  Mn2642    1.0  0.1875  0.18749999999999997  0.0  1.0000
  Mn  Mn2643    1.0  0.1875  0.3125  0.0  1.0000
  Mn  Mn2644    1.0  0.1875  0.4374999999999999  0.0  1.0000
  Mn  Mn2645    1.0  0.1875  0.4999999999999999  0.0  1.0000
  Mn  Mn2646    1.0  0.1875  0.625  0.0  1.0000
  Mn  Mn2647    1.0  0.1875  0.7499999999999999  0.0  1.0000
  Mn  Mn2648    1.0  0.1875  0.8749999999999998  0.0  1.0000
  Mn  Mn2649    1.0  0.21875  0.031249999999999993  0.9687500000000001  1.0000
  Mn  Mn2650    1.0  0.21875  0.09374999999999999  0.9687500000000001  1.0000
  Mn  Mn2651    1.0  0.21875  0.15625  0.9687500000000001  1.0000
  Mn  Mn2652    1.0  0.21875  0.21874999999999994  0.9687500000000001  1.0000
  Mn  Mn2653    1.0  0.21875  0.28125  0.9687500000000001  1.0000
  Mn  Mn2654    1.0  0.21875  0.34375  0.9687500000000001  1.0000
  Mn  Mn2655    1.0  0.21875  0.4062499999999999  0.9687500000000001  1.0000
  Mn  Mn2656    1.0  0.21875  0.4687499999999999  0.9687500000000001  1.0000
  Mn  Mn2657    1.0  0.25  0.0  0.9375000000000001  1.0000
  Mn  Mn2658    1.0  0.25  0.12499999999999997  0.9375000000000001  1.0000
  Mn  Mn2659    1.0  0.25  0.24999999999999994  0.9375000000000001  1.0000
  Mn  Mn2660    1.0  0.25  0.37499999999999994  0.9375000000000001  1.0000
  Mn  Mn2661    1.0  0.25  0.5625  0.9375000000000001  1.0000
  Mn  Mn2662    1.0  0.25  0.6875  0.9375000000000001  1.0000
  Mn  Mn2663    1.0  0.25  0.8124999999999998  0.9375000000000001  1.0000
  Mn  Mn2664    1.0  0.25  0.9374999999999998  0.9375000000000001  1.0000
  Mn  Mn2665    1.0  0.28125  0.031249999999999993  0.9062500000000001  1.0000
  Mn  Mn2666    1.0  0.28125  0.09374999999999999  0.9062500000000001  1.0000
  Mn  Mn2667    1.0  0.28125  0.15625  0.9062500000000001  1.0000
  Mn  Mn2668    1.0  0.28125  0.21874999999999994  0.9062500000000001  1.0000
  Mn  Mn2669    1.0  0.28125  0.28125  0.9062500000000001  1.0000
  Mn  Mn2670    1.0  0.28125  0.34375  0.9062500000000001  1.0000
  Mn  Mn2671    1.0  0.28125  0.4062499999999999  0.9062500000000001  1.0000
  Mn  Mn2672    1.0  0.28125  0.4687499999999999  0.9062500000000001  1.0000
  Mn  Mn2673    1.0  0.3125000000000001  0.062499999999999986  0.875  1.0000
  Mn  Mn2674    1.0  0.3125000000000001  0.18749999999999997  0.875  1.0000
  Mn  Mn2675    1.0  0.3125000000000001  0.3125  0.875  1.0000
  Mn  Mn2676    1.0  0.3125000000000001  0.4374999999999999  0.875  1.0000
  Mn  Mn2677    1.0  0.3125000000000001  0.4999999999999999  0.875  1.0000
  Mn  Mn2678    1.0  0.3125000000000001  0.625  0.875  1.0000
  Mn  Mn2679    1.0  0.3125000000000001  0.7499999999999999  0.875  1.0000
  Mn  Mn2680    1.0  0.3125000000000001  0.8749999999999998  0.875  1.0000
  Mn  Mn2681    1.0  0.3437500000000001  0.031249999999999993  0.84375  1.0000
  Mn  Mn2682    1.0  0.3437500000000001  0.09374999999999999  0.84375  1.0000
  Mn  Mn2683    1.0  0.3437500000000001  0.15625  0.84375  1.0000
  Mn  Mn2684    1.0  0.3437500000000001  0.21874999999999994  0.84375  1.0000
  Mn  Mn2685    1.0  0.3437500000000001  0.28125  0.84375  1.0000
  Mn  Mn2686    1.0  0.3437500000000001  0.34375  0.84375  1.0000
  Mn  Mn2687    1.0  0.3437500000000001  0.4062499999999999  0.84375  1.0000
  Mn  Mn2688    1.0  0.3437500000000001  0.4687499999999999  0.84375  1.0000
  Mn  Mn2689    1.0  0.375  0.0  0.8125  1.0000
  Mn  Mn2690    1.0  0.375  0.12499999999999997  0.8125  1.0000
  Mn  Mn2691    1.0  0.375  0.24999999999999994  0.8125  1.0000
  Mn  Mn2692    1.0  0.375  0.37499999999999994  0.8125  1.0000
  Mn  Mn2693    1.0  0.375  0.5625  0.8125  1.0000
  Mn  Mn2694    1.0  0.375  0.6875  0.8125  1.0000
  Mn  Mn2695    1.0  0.375  0.8124999999999998  0.8125  1.0000
  Mn  Mn2696    1.0  0.375  0.9374999999999998  0.8125  1.0000
  Mn  Mn2697    1.0  0.40625  0.031249999999999993  0.78125  1.0000
  Mn  Mn2698    1.0  0.40625  0.09374999999999999  0.78125  1.0000
  Mn  Mn2699    1.0  0.40625  0.15625  0.78125  1.0000
  Mn  Mn2700    1.0  0.40625  0.21874999999999994  0.78125  1.0000
  Mn  Mn2701    1.0  0.40625  0.28125  0.78125  1.0000
  Mn  Mn2702    1.0  0.40625  0.34375  0.78125  1.0000
  Mn  Mn2703    1.0  0.40625  0.4062499999999999  0.78125  1.0000
  Mn  Mn2704    1.0  0.40625  0.4687499999999999  0.78125  1.0000
  Mn  Mn2705    1.0  0.4375  0.062499999999999986  0.75  1.0000
  Mn  Mn2706    1.0  0.4375  0.18749999999999997  0.75  1.0000
  Mn  Mn2707    1.0  0.4375  0.3125  0.75  1.0000
  Mn  Mn2708    1.0  0.4375  0.4374999999999999  0.75  1.0000
  Mn  Mn2709    1.0  0.4375  0.4999999999999999  0.75  1.0000
  Mn  Mn2710    1.0  0.4375  0.625  0.75  1.0000
  Mn  Mn2711    1.0  0.4375  0.7499999999999999  0.75  1.0000
  Mn  Mn2712    1.0  0.4375  0.8749999999999998  0.75  1.0000
  Mn  Mn2713    1.0  0.46875  0.031249999999999993  0.71875  1.0000
  Mn  Mn2714    1.0  0.46875  0.09374999999999999  0.71875  1.0000
  Mn  Mn2715    1.0  0.46875  0.15625  0.71875  1.0000
  Mn  Mn2716    1.0  0.46875  0.21874999999999994  0.71875  1.0000
  Mn  Mn2717    1.0  0.46875  0.28125  0.71875  1.0000
  Mn  Mn2718    1.0  0.46875  0.34375  0.71875  1.0000
  Mn  Mn2719    1.0  0.46875  0.4062499999999999  0.71875  1.0000
  Mn  Mn2720    1.0  0.46875  0.4687499999999999  0.71875  1.0000
  Mn  Mn2721    1.0  0.49999999999999994  0.0  0.6875000000000001  1.0000
  Mn  Mn2722    1.0  0.49999999999999994  0.12499999999999997  0.6875000000000001  1.0000
  Mn  Mn2723    1.0  0.49999999999999994  0.24999999999999994  0.6875000000000001  1.0000
  Mn  Mn2724    1.0  0.49999999999999994  0.37499999999999994  0.6875000000000001  1.0000
  Mn  Mn2725    1.0  0.49999999999999994  0.5625  0.6875000000000001  1.0000
  Mn  Mn2726    1.0  0.49999999999999994  0.6875  0.6875000000000001  1.0000
  Mn  Mn2727    1.0  0.49999999999999994  0.8124999999999998  0.6875000000000001  1.0000
  Mn  Mn2728    1.0  0.49999999999999994  0.9374999999999998  0.6875000000000001  1.0000
  Mn  Mn2729    1.0  0.53125  0.031249999999999993  0.6562500000000001  1.0000
  Mn  Mn2730    1.0  0.53125  0.09374999999999999  0.6562500000000001  1.0000
  Mn  Mn2731    1.0  0.53125  0.15625  0.6562500000000001  1.0000
  Mn  Mn2732    1.0  0.53125  0.21874999999999994  0.6562500000000001  1.0000
  Mn  Mn2733    1.0  0.53125  0.28125  0.6562500000000001  1.0000
  Mn  Mn2734    1.0  0.53125  0.34375  0.6562500000000001  1.0000
  Mn  Mn2735    1.0  0.53125  0.4062499999999999  0.6562500000000001  1.0000
  Mn  Mn2736    1.0  0.53125  0.4687499999999999  0.6562500000000001  1.0000
  Mn  Mn2737    1.0  0.5625  0.062499999999999986  0.6250000000000001  1.0000
  Mn  Mn2738    1.0  0.5625  0.18749999999999997  0.6250000000000001  1.0000
  Mn  Mn2739    1.0  0.5625  0.3125  0.6250000000000001  1.0000
  Mn  Mn2740    1.0  0.5625  0.4374999999999999  0.6250000000000001  1.0000
  Mn  Mn2741    1.0  0.5625  0.4999999999999999  0.6250000000000001  1.0000
  Mn  Mn2742    1.0  0.5625  0.625  0.6250000000000001  1.0000
  Mn  Mn2743    1.0  0.5625  0.7499999999999999  0.6250000000000001  1.0000
  Mn  Mn2744    1.0  0.5625  0.8749999999999998  0.6250000000000001  1.0000
  Mn  Mn2745    1.0  0.59375  0.031249999999999993  0.5937500000000001  1.0000
  Mn  Mn2746    1.0  0.59375  0.09374999999999999  0.5937500000000001  1.0000
  Mn  Mn2747    1.0  0.59375  0.15625  0.5937500000000001  1.0000
  Mn  Mn2748    1.0  0.59375  0.21874999999999994  0.5937500000000001  1.0000
  Mn  Mn2749    1.0  0.59375  0.28125  0.5937500000000001  1.0000
  Mn  Mn2750    1.0  0.59375  0.34375  0.5937500000000001  1.0000
  Mn  Mn2751    1.0  0.59375  0.4062499999999999  0.5937500000000001  1.0000
  Mn  Mn2752    1.0  0.59375  0.4687499999999999  0.5937500000000001  1.0000
  Mn  Mn2753    1.0  0.6250000000000002  0.0  0.5625000000000001  1.0000
  Mn  Mn2754    1.0  0.6250000000000002  0.12499999999999997  0.5625000000000001  1.0000
  Mn  Mn2755    1.0  0.6250000000000002  0.24999999999999994  0.5625000000000001  1.0000
  Mn  Mn2756    1.0  0.6250000000000002  0.37499999999999994  0.5625000000000001  1.0000
  Mn  Mn2757    1.0  0.6250000000000002  0.5625  0.5625000000000001  1.0000
  Mn  Mn2758    1.0  0.6250000000000002  0.6875  0.5625000000000001  1.0000
  Mn  Mn2759    1.0  0.6250000000000002  0.8124999999999998  0.5625000000000001  1.0000
  Mn  Mn2760    1.0  0.6250000000000002  0.9374999999999998  0.5625000000000001  1.0000
  Mn  Mn2761    1.0  0.65625  0.031249999999999993  0.53125  1.0000
  Mn  Mn2762    1.0  0.65625  0.09374999999999999  0.53125  1.0000
  Mn  Mn2763    1.0  0.65625  0.15625  0.53125  1.0000
  Mn  Mn2764    1.0  0.65625  0.21874999999999994  0.53125  1.0000
  Mn  Mn2765    1.0  0.65625  0.28125  0.53125  1.0000
  Mn  Mn2766    1.0  0.65625  0.34375  0.53125  1.0000
  Mn  Mn2767    1.0  0.65625  0.4062499999999999  0.53125  1.0000
  Mn  Mn2768    1.0  0.65625  0.4687499999999999  0.53125  1.0000
  Mn  Mn2769    1.0  0.6875000000000002  0.062499999999999986  0.5  1.0000
  Mn  Mn2770    1.0  0.6875000000000002  0.18749999999999997  0.5  1.0000
  Mn  Mn2771    1.0  0.6875000000000002  0.3125  0.5  1.0000
  Mn  Mn2772    1.0  0.6875000000000002  0.4374999999999999  0.5  1.0000
  Mn  Mn2773    1.0  0.6875000000000002  0.4999999999999999  0.5  1.0000
  Mn  Mn2774    1.0  0.6875000000000002  0.625  0.5  1.0000
  Mn  Mn2775    1.0  0.6875000000000002  0.7499999999999999  0.5  1.0000
  Mn  Mn2776    1.0  0.6875000000000002  0.8749999999999998  0.5  1.0000
  Mn  Mn2777    1.0  0.71875  0.031249999999999993  0.4687499999999999  1.0000
  Mn  Mn2778    1.0  0.71875  0.09374999999999999  0.4687499999999999  1.0000
  Mn  Mn2779    1.0  0.71875  0.15625  0.4687499999999999  1.0000
  Mn  Mn2780    1.0  0.71875  0.21874999999999994  0.4687499999999999  1.0000
  Mn  Mn2781    1.0  0.71875  0.28125  0.4687499999999999  1.0000
  Mn  Mn2782    1.0  0.71875  0.34375  0.4687499999999999  1.0000
  Mn  Mn2783    1.0  0.71875  0.4062499999999999  0.4687499999999999  1.0000
  Mn  Mn2784    1.0  0.71875  0.4687499999999999  0.4687499999999999  1.0000
  Mn  Mn2785    1.0  0.75  0.0  0.43749999999999994  1.0000
  Mn  Mn2786    1.0  0.75  0.12499999999999997  0.43749999999999994  1.0000
  Mn  Mn2787    1.0  0.75  0.24999999999999994  0.43749999999999994  1.0000
  Mn  Mn2788    1.0  0.75  0.37499999999999994  0.43749999999999994  1.0000
  Mn  Mn2789    1.0  0.75  0.5625  0.43749999999999994  1.0000
  Mn  Mn2790    1.0  0.75  0.6875  0.43749999999999994  1.0000
  Mn  Mn2791    1.0  0.75  0.8124999999999998  0.43749999999999994  1.0000
  Mn  Mn2792    1.0  0.75  0.9374999999999998  0.43749999999999994  1.0000
  Mn  Mn2793    1.0  0.78125  0.031249999999999993  0.40624999999999994  1.0000
  Mn  Mn2794    1.0  0.78125  0.09374999999999999  0.40624999999999994  1.0000
  Mn  Mn2795    1.0  0.78125  0.15625  0.40624999999999994  1.0000
  Mn  Mn2796    1.0  0.78125  0.21874999999999994  0.40624999999999994  1.0000
  Mn  Mn2797    1.0  0.78125  0.28125  0.40624999999999994  1.0000
  Mn  Mn2798    1.0  0.78125  0.34375  0.40624999999999994  1.0000
  Mn  Mn2799    1.0  0.78125  0.4062499999999999  0.40624999999999994  1.0000
  Mn  Mn2800    1.0  0.78125  0.4687499999999999  0.40624999999999994  1.0000
  Mn  Mn2801    1.0  0.8125  0.062499999999999986  0.37499999999999994  1.0000
  Mn  Mn2802    1.0  0.8125  0.18749999999999997  0.37499999999999994  1.0000
  Mn  Mn2803    1.0  0.8125  0.3125  0.37499999999999994  1.0000
  Mn  Mn2804    1.0  0.8125  0.4374999999999999  0.37499999999999994  1.0000
  Mn  Mn2805    1.0  0.8125  0.4999999999999999  0.37499999999999994  1.0000
  Mn  Mn2806    1.0  0.8125  0.625  0.37499999999999994  1.0000
  Mn  Mn2807    1.0  0.8125  0.7499999999999999  0.37499999999999994  1.0000
  Mn  Mn2808    1.0  0.8125  0.8749999999999998  0.37499999999999994  1.0000
  Mn  Mn2809    1.0  0.8437500000000002  0.031249999999999993  0.34375000000000006  1.0000
  Mn  Mn2810    1.0  0.8437500000000002  0.09374999999999999  0.34375000000000006  1.0000
  Mn  Mn2811    1.0  0.8437500000000002  0.15625  0.34375000000000006  1.0000
  Mn  Mn2812    1.0  0.8437500000000002  0.21874999999999994  0.34375000000000006  1.0000
  Mn  Mn2813    1.0  0.8437500000000002  0.28125  0.34375000000000006  1.0000
  Mn  Mn2814    1.0  0.8437500000000002  0.34375  0.34375000000000006  1.0000
  Mn  Mn2815    1.0  0.8437500000000002  0.4062499999999999  0.34375000000000006  1.0000
  Mn  Mn2816    1.0  0.8437500000000002  0.4687499999999999  0.34375000000000006  1.0000
  Mn  Mn2817    1.0  0.875  0.0  0.31250000000000006  1.0000
  Mn  Mn2818    1.0  0.875  0.12499999999999997  0.31250000000000006  1.0000
  Mn  Mn2819    1.0  0.875  0.24999999999999994  0.31250000000000006  1.0000
  Mn  Mn2820    1.0  0.875  0.37499999999999994  0.31250000000000006  1.0000
  Mn  Mn2821    1.0  0.875  0.5625  0.31250000000000006  1.0000
  Mn  Mn2822    1.0  0.875  0.6875  0.31250000000000006  1.0000
  Mn  Mn2823    1.0  0.875  0.8124999999999998  0.31250000000000006  1.0000
  Mn  Mn2824    1.0  0.875  0.9374999999999998  0.31250000000000006  1.0000
  Mn  Mn2825    1.0  0.9062500000000002  0.031249999999999993  0.2812499999999999  1.0000
  Mn  Mn2826    1.0  0.9062500000000002  0.09374999999999999  0.2812499999999999  1.0000
  Mn  Mn2827    1.0  0.9062500000000002  0.15625  0.2812499999999999  1.0000
  Mn  Mn2828    1.0  0.9062500000000002  0.21874999999999994  0.2812499999999999  1.0000
  Mn  Mn2829    1.0  0.9062500000000002  0.28125  0.2812499999999999  1.0000
  Mn  Mn2830    1.0  0.9062500000000002  0.34375  0.2812499999999999  1.0000
  Mn  Mn2831    1.0  0.9062500000000002  0.4062499999999999  0.2812499999999999  1.0000
  Mn  Mn2832    1.0  0.9062500000000002  0.4687499999999999  0.2812499999999999  1.0000
  Mn  Mn2833    1.0  0.9375  0.062499999999999986  0.25  1.0000
  Mn  Mn2834    1.0  0.9375  0.18749999999999997  0.25  1.0000
  Mn  Mn2835    1.0  0.9375  0.3125  0.25  1.0000
  Mn  Mn2836    1.0  0.9375  0.4374999999999999  0.25  1.0000
  Mn  Mn2837    1.0  0.9375  0.4999999999999999  0.25  1.0000
  Mn  Mn2838    1.0  0.9375  0.625  0.25  1.0000
  Mn  Mn2839    1.0  0.9375  0.7499999999999999  0.25  1.0000
  Mn  Mn2840    1.0  0.9375  0.8749999999999998  0.25  1.0000
  Mn  Mn2841    1.0  0.9687500000000002  0.031249999999999993  0.21875000000000006  1.0000
  Mn  Mn2842    1.0  0.9687500000000002  0.09374999999999999  0.21875000000000006  1.0000
  Mn  Mn2843    1.0  0.9687500000000002  0.15625  0.21875000000000006  1.0000
  Mn  Mn2844    1.0  0.9687500000000002  0.21874999999999994  0.21875000000000006  1.0000
  Mn  Mn2845    1.0  0.9687500000000002  0.28125  0.21875000000000006  1.0000
  Mn  Mn2846    1.0  0.9687500000000002  0.34375  0.21875000000000006  1.0000
  Mn  Mn2847    1.0  0.9687500000000002  0.4062499999999999  0.21875000000000006  1.0000
  Mn  Mn2848    1.0  0.9687500000000002  0.4687499999999999  0.21875000000000006  1.0000
  Mn  Mn2849    1.0  0.25  0.0  0.0  1.0000
  Mn  Mn2850    1.0  0.25  0.12499999999999997  0.0  1.0000
  Mn  Mn2851    1.0  0.25  0.24999999999999994  0.0  1.0000
  Mn  Mn2852    1.0  0.25  0.37499999999999994  0.0  1.0000
  Mn  Mn2853    1.0  0.25  0.5625  0.0  1.0000
  Mn  Mn2854    1.0  0.25  0.6875  0.0  1.0000
  Mn  Mn2855    1.0  0.25  0.8124999999999998  0.0  1.0000
  Mn  Mn2856    1.0  0.25  0.9374999999999998  0.0  1.0000
  Mn  Mn2857    1.0  0.28125  0.53125  0.9687500000000001  1.0000
  Mn  Mn2858    1.0  0.28125  0.59375  0.9687500000000001  1.0000
  Mn  Mn2859    1.0  0.28125  0.65625  0.9687500000000001  1.0000
  Mn  Mn2860    1.0  0.28125  0.7187499999999999  0.9687500000000001  1.0000
  Mn  Mn2861    1.0  0.28125  0.7812499999999999  0.9687500000000001  1.0000
  Mn  Mn2862    1.0  0.28125  0.8437499999999998  0.9687500000000001  1.0000
  Mn  Mn2863    1.0  0.28125  0.9062499999999998  0.9687500000000001  1.0000
  Mn  Mn2864    1.0  0.28125  0.9687499999999998  0.9687500000000001  1.0000
  Mn  Mn2865    1.0  0.3125000000000001  0.062499999999999986  0.9375000000000001  1.0000
  Mn  Mn2866    1.0  0.3125000000000001  0.18749999999999997  0.9375000000000001  1.0000
  Mn  Mn2867    1.0  0.3125000000000001  0.3125  0.9375000000000001  1.0000
  Mn  Mn2868    1.0  0.3125000000000001  0.4374999999999999  0.9375000000000001  1.0000
  Mn  Mn2869    1.0  0.3125000000000001  0.4999999999999999  0.9375000000000001  1.0000
  Mn  Mn2870    1.0  0.3125000000000001  0.625  0.9375000000000001  1.0000
  Mn  Mn2871    1.0  0.3125000000000001  0.7499999999999999  0.9375000000000001  1.0000
  Mn  Mn2872    1.0  0.3125000000000001  0.8749999999999998  0.9375000000000001  1.0000
  Mn  Mn2873    1.0  0.3437500000000001  0.53125  0.9062500000000001  1.0000
  Mn  Mn2874    1.0  0.3437500000000001  0.59375  0.9062500000000001  1.0000
  Mn  Mn2875    1.0  0.3437500000000001  0.65625  0.9062500000000001  1.0000
  Mn  Mn2876    1.0  0.3437500000000001  0.7187499999999999  0.9062500000000001  1.0000
  Mn  Mn2877    1.0  0.3437500000000001  0.7812499999999999  0.9062500000000001  1.0000
  Mn  Mn2878    1.0  0.3437500000000001  0.8437499999999998  0.9062500000000001  1.0000
  Mn  Mn2879    1.0  0.3437500000000001  0.9062499999999998  0.9062500000000001  1.0000
  Mn  Mn2880    1.0  0.3437500000000001  0.9687499999999998  0.9062500000000001  1.0000
  Mn  Mn2881    1.0  0.375  0.0  0.875  1.0000
  Mn  Mn2882    1.0  0.375  0.12499999999999997  0.875  1.0000
  Mn  Mn2883    1.0  0.375  0.24999999999999994  0.875  1.0000
  Mn  Mn2884    1.0  0.375  0.37499999999999994  0.875  1.0000
  Mn  Mn2885    1.0  0.375  0.5625  0.875  1.0000
  Mn  Mn2886    1.0  0.375  0.6875  0.875  1.0000
  Mn  Mn2887    1.0  0.375  0.8124999999999998  0.875  1.0000
  Mn  Mn2888    1.0  0.375  0.9374999999999998  0.875  1.0000
  Mn  Mn2889    1.0  0.40625  0.53125  0.84375  1.0000
  Mn  Mn2890    1.0  0.40625  0.59375  0.84375  1.0000
  Mn  Mn2891    1.0  0.40625  0.65625  0.84375  1.0000
  Mn  Mn2892    1.0  0.40625  0.7187499999999999  0.84375  1.0000
  Mn  Mn2893    1.0  0.40625  0.7812499999999999  0.84375  1.0000
  Mn  Mn2894    1.0  0.40625  0.8437499999999998  0.84375  1.0000
  Mn  Mn2895    1.0  0.40625  0.9062499999999998  0.84375  1.0000
  Mn  Mn2896    1.0  0.40625  0.9687499999999998  0.84375  1.0000
  Mn  Mn2897    1.0  0.4375  0.062499999999999986  0.8125  1.0000
  Mn  Mn2898    1.0  0.4375  0.18749999999999997  0.8125  1.0000
  Mn  Mn2899    1.0  0.4375  0.3125  0.8125  1.0000
  Mn  Mn2900    1.0  0.4375  0.4374999999999999  0.8125  1.0000
  Mn  Mn2901    1.0  0.4375  0.4999999999999999  0.8125  1.0000
  Mn  Mn2902    1.0  0.4375  0.625  0.8125  1.0000
  Mn  Mn2903    1.0  0.4375  0.7499999999999999  0.8125  1.0000
  Mn  Mn2904    1.0  0.4375  0.8749999999999998  0.8125  1.0000
  Mn  Mn2905    1.0  0.46875  0.53125  0.78125  1.0000
  Mn  Mn2906    1.0  0.46875  0.59375  0.78125  1.0000
  Mn  Mn2907    1.0  0.46875  0.65625  0.78125  1.0000
  Mn  Mn2908    1.0  0.46875  0.7187499999999999  0.78125  1.0000
  Mn  Mn2909    1.0  0.46875  0.7812499999999999  0.78125  1.0000
  Mn  Mn2910    1.0  0.46875  0.8437499999999998  0.78125  1.0000
  Mn  Mn2911    1.0  0.46875  0.9062499999999998  0.78125  1.0000
  Mn  Mn2912    1.0  0.46875  0.9687499999999998  0.78125  1.0000
  Mn  Mn2913    1.0  0.49999999999999994  0.0  0.75  1.0000
  Mn  Mn2914    1.0  0.49999999999999994  0.12499999999999997  0.75  1.0000
  Mn  Mn2915    1.0  0.49999999999999994  0.24999999999999994  0.75  1.0000
  Mn  Mn2916    1.0  0.49999999999999994  0.37499999999999994  0.75  1.0000
  Mn  Mn2917    1.0  0.49999999999999994  0.5625  0.75  1.0000
  Mn  Mn2918    1.0  0.49999999999999994  0.6875  0.75  1.0000
  Mn  Mn2919    1.0  0.49999999999999994  0.8124999999999998  0.75  1.0000
  Mn  Mn2920    1.0  0.49999999999999994  0.9374999999999998  0.75  1.0000
  Mn  Mn2921    1.0  0.53125  0.53125  0.71875  1.0000
  Mn  Mn2922    1.0  0.53125  0.59375  0.71875  1.0000
  Mn  Mn2923    1.0  0.53125  0.65625  0.71875  1.0000
  Mn  Mn2924    1.0  0.53125  0.7187499999999999  0.71875  1.0000
  Mn  Mn2925    1.0  0.53125  0.7812499999999999  0.71875  1.0000
  Mn  Mn2926    1.0  0.53125  0.8437499999999998  0.71875  1.0000
  Mn  Mn2927    1.0  0.53125  0.9062499999999998  0.71875  1.0000
  Mn  Mn2928    1.0  0.53125  0.9687499999999998  0.71875  1.0000
  Mn  Mn2929    1.0  0.5625  0.062499999999999986  0.6875000000000001  1.0000
  Mn  Mn2930    1.0  0.5625  0.18749999999999997  0.6875000000000001  1.0000
  Mn  Mn2931    1.0  0.5625  0.3125  0.6875000000000001  1.0000
  Mn  Mn2932    1.0  0.5625  0.4374999999999999  0.6875000000000001  1.0000
  Mn  Mn2933    1.0  0.5625  0.4999999999999999  0.6875000000000001  1.0000
  Mn  Mn2934    1.0  0.5625  0.625  0.6875000000000001  1.0000
  Mn  Mn2935    1.0  0.5625  0.7499999999999999  0.6875000000000001  1.0000
  Mn  Mn2936    1.0  0.5625  0.8749999999999998  0.6875000000000001  1.0000
  Mn  Mn2937    1.0  0.59375  0.53125  0.6562500000000001  1.0000
  Mn  Mn2938    1.0  0.59375  0.59375  0.6562500000000001  1.0000
  Mn  Mn2939    1.0  0.59375  0.65625  0.6562500000000001  1.0000
  Mn  Mn2940    1.0  0.59375  0.7187499999999999  0.6562500000000001  1.0000
  Mn  Mn2941    1.0  0.59375  0.7812499999999999  0.6562500000000001  1.0000
  Mn  Mn2942    1.0  0.59375  0.8437499999999998  0.6562500000000001  1.0000
  Mn  Mn2943    1.0  0.59375  0.9062499999999998  0.6562500000000001  1.0000
  Mn  Mn2944    1.0  0.59375  0.9687499999999998  0.6562500000000001  1.0000
  Mn  Mn2945    1.0  0.6250000000000002  0.0  0.6250000000000001  1.0000
  Mn  Mn2946    1.0  0.6250000000000002  0.12499999999999997  0.6250000000000001  1.0000
  Mn  Mn2947    1.0  0.6250000000000002  0.24999999999999994  0.6250000000000001  1.0000
  Mn  Mn2948    1.0  0.6250000000000002  0.37499999999999994  0.6250000000000001  1.0000
  Mn  Mn2949    1.0  0.6250000000000002  0.5625  0.6250000000000001  1.0000
  Mn  Mn2950    1.0  0.6250000000000002  0.6875  0.6250000000000001  1.0000
  Mn  Mn2951    1.0  0.6250000000000002  0.8124999999999998  0.6250000000000001  1.0000
  Mn  Mn2952    1.0  0.6250000000000002  0.9374999999999998  0.6250000000000001  1.0000
  Mn  Mn2953    1.0  0.65625  0.53125  0.5937500000000001  1.0000
  Mn  Mn2954    1.0  0.65625  0.59375  0.5937500000000001  1.0000
  Mn  Mn2955    1.0  0.65625  0.65625  0.5937500000000001  1.0000
  Mn  Mn2956    1.0  0.65625  0.7187499999999999  0.5937500000000001  1.0000
  Mn  Mn2957    1.0  0.65625  0.7812499999999999  0.5937500000000001  1.0000
  Mn  Mn2958    1.0  0.65625  0.8437499999999998  0.5937500000000001  1.0000
  Mn  Mn2959    1.0  0.65625  0.9062499999999998  0.5937500000000001  1.0000
  Mn  Mn2960    1.0  0.65625  0.9687499999999998  0.5937500000000001  1.0000
  Mn  Mn2961    1.0  0.6875000000000002  0.062499999999999986  0.5625000000000001  1.0000
  Mn  Mn2962    1.0  0.6875000000000002  0.18749999999999997  0.5625000000000001  1.0000
  Mn  Mn2963    1.0  0.6875000000000002  0.3125  0.5625000000000001  1.0000
  Mn  Mn2964    1.0  0.6875000000000002  0.4374999999999999  0.5625000000000001  1.0000
  Mn  Mn2965    1.0  0.6875000000000002  0.4999999999999999  0.5625000000000001  1.0000
  Mn  Mn2966    1.0  0.6875000000000002  0.625  0.5625000000000001  1.0000
  Mn  Mn2967    1.0  0.6875000000000002  0.7499999999999999  0.5625000000000001  1.0000
  Mn  Mn2968    1.0  0.6875000000000002  0.8749999999999998  0.5625000000000001  1.0000
  Mn  Mn2969    1.0  0.71875  0.53125  0.53125  1.0000
  Mn  Mn2970    1.0  0.71875  0.59375  0.53125  1.0000
  Mn  Mn2971    1.0  0.71875  0.65625  0.53125  1.0000
  Mn  Mn2972    1.0  0.71875  0.7187499999999999  0.53125  1.0000
  Mn  Mn2973    1.0  0.71875  0.7812499999999999  0.53125  1.0000
  Mn  Mn2974    1.0  0.71875  0.8437499999999998  0.53125  1.0000
  Mn  Mn2975    1.0  0.71875  0.9062499999999998  0.53125  1.0000
  Mn  Mn2976    1.0  0.71875  0.9687499999999998  0.53125  1.0000
  Mn  Mn2977    1.0  0.75  0.0  0.5  1.0000
  Mn  Mn2978    1.0  0.75  0.12499999999999997  0.5  1.0000
  Mn  Mn2979    1.0  0.75  0.24999999999999994  0.5  1.0000
  Mn  Mn2980    1.0  0.75  0.37499999999999994  0.5  1.0000
  Mn  Mn2981    1.0  0.75  0.5625  0.5  1.0000
  Mn  Mn2982    1.0  0.75  0.6875  0.5  1.0000
  Mn  Mn2983    1.0  0.75  0.8124999999999998  0.5  1.0000
  Mn  Mn2984    1.0  0.75  0.9374999999999998  0.5  1.0000
  Mn  Mn2985    1.0  0.78125  0.53125  0.4687499999999999  1.0000
  Mn  Mn2986    1.0  0.78125  0.59375  0.4687499999999999  1.0000
  Mn  Mn2987    1.0  0.78125  0.65625  0.4687499999999999  1.0000
  Mn  Mn2988    1.0  0.78125  0.7187499999999999  0.4687499999999999  1.0000
  Mn  Mn2989    1.0  0.78125  0.7812499999999999  0.4687499999999999  1.0000
  Mn  Mn2990    1.0  0.78125  0.8437499999999998  0.4687499999999999  1.0000
  Mn  Mn2991    1.0  0.78125  0.9062499999999998  0.4687499999999999  1.0000
  Mn  Mn2992    1.0  0.78125  0.9687499999999998  0.4687499999999999  1.0000
  Mn  Mn2993    1.0  0.8125  0.062499999999999986  0.43749999999999994  1.0000
  Mn  Mn2994    1.0  0.8125  0.18749999999999997  0.43749999999999994  1.0000
  Mn  Mn2995    1.0  0.8125  0.3125  0.43749999999999994  1.0000
  Mn  Mn2996    1.0  0.8125  0.4374999999999999  0.43749999999999994  1.0000
  Mn  Mn2997    1.0  0.8125  0.4999999999999999  0.43749999999999994  1.0000
  Mn  Mn2998    1.0  0.8125  0.625  0.43749999999999994  1.0000
  Mn  Mn2999    1.0  0.8125  0.7499999999999999  0.43749999999999994  1.0000
  Mn  Mn3000    1.0  0.8125  0.8749999999999998  0.43749999999999994  1.0000
  Mn  Mn3001    1.0  0.8437500000000002  0.53125  0.40624999999999994  1.0000
  Mn  Mn3002    1.0  0.8437500000000002  0.59375  0.40624999999999994  1.0000
  Mn  Mn3003    1.0  0.8437500000000002  0.65625  0.40624999999999994  1.0000
  Mn  Mn3004    1.0  0.8437500000000002  0.7187499999999999  0.40624999999999994  1.0000
  Mn  Mn3005    1.0  0.8437500000000002  0.7812499999999999  0.40624999999999994  1.0000
  Mn  Mn3006    1.0  0.8437500000000002  0.8437499999999998  0.40624999999999994  1.0000
  Mn  Mn3007    1.0  0.8437500000000002  0.9062499999999998  0.40624999999999994  1.0000
  Mn  Mn3008    1.0  0.8437500000000002  0.9687499999999998  0.40624999999999994  1.0000
  Mn  Mn3009    1.0  0.875  0.0  0.37499999999999994  1.0000
  Mn  Mn3010    1.0  0.875  0.12499999999999997  0.37499999999999994  1.0000
  Mn  Mn3011    1.0  0.875  0.24999999999999994  0.37499999999999994  1.0000
  Mn  Mn3012    1.0  0.875  0.37499999999999994  0.37499999999999994  1.0000
  Mn  Mn3013    1.0  0.875  0.5625  0.37499999999999994  1.0000
  Mn  Mn3014    1.0  0.875  0.6875  0.37499999999999994  1.0000
  Mn  Mn3015    1.0  0.875  0.8124999999999998  0.37499999999999994  1.0000
  Mn  Mn3016    1.0  0.875  0.9374999999999998  0.37499999999999994  1.0000
  Mn  Mn3017    1.0  0.9062500000000002  0.53125  0.34375000000000006  1.0000
  Mn  Mn3018    1.0  0.9062500000000002  0.59375  0.34375000000000006  1.0000
  Mn  Mn3019    1.0  0.9062500000000002  0.65625  0.34375000000000006  1.0000
  Mn  Mn3020    1.0  0.9062500000000002  0.7187499999999999  0.34375000000000006  1.0000
  Mn  Mn3021    1.0  0.9062500000000002  0.7812499999999999  0.34375000000000006  1.0000
  Mn  Mn3022    1.0  0.9062500000000002  0.8437499999999998  0.34375000000000006  1.0000
  Mn  Mn3023    1.0  0.9062500000000002  0.9062499999999998  0.34375000000000006  1.0000
  Mn  Mn3024    1.0  0.9062500000000002  0.9687499999999998  0.34375000000000006  1.0000
  Mn  Mn3025    1.0  0.9375  0.062499999999999986  0.31250000000000006  1.0000
  Mn  Mn3026    1.0  0.9375  0.18749999999999997  0.31250000000000006  1.0000
  Mn  Mn3027    1.0  0.9375  0.3125  0.31250000000000006  1.0000
  Mn  Mn3028    1.0  0.9375  0.4374999999999999  0.31250000000000006  1.0000
  Mn  Mn3029    1.0  0.9375  0.4999999999999999  0.31250000000000006  1.0000
  Mn  Mn3030    1.0  0.9375  0.625  0.31250000000000006  1.0000
  Mn  Mn3031    1.0  0.9375  0.7499999999999999  0.31250000000000006  1.0000
  Mn  Mn3032    1.0  0.9375  0.8749999999999998  0.31250000000000006  1.0000
  Mn  Mn3033    1.0  0.9687500000000002  0.53125  0.2812499999999999  1.0000
  Mn  Mn3034    1.0  0.9687500000000002  0.59375  0.2812499999999999  1.0000
  Mn  Mn3035    1.0  0.9687500000000002  0.65625  0.2812499999999999  1.0000
  Mn  Mn3036    1.0  0.9687500000000002  0.7187499999999999  0.2812499999999999  1.0000
  Mn  Mn3037    1.0  0.9687500000000002  0.7812499999999999  0.2812499999999999  1.0000
  Mn  Mn3038    1.0  0.9687500000000002  0.8437499999999998  0.2812499999999999  1.0000
  Mn  Mn3039    1.0  0.9687500000000002  0.9062499999999998  0.2812499999999999  1.0000
  Mn  Mn3040    1.0  0.9687500000000002  0.9687499999999998  0.2812499999999999  1.0000
  Mn  Mn3041    1.0  0.3125000000000001  0.062499999999999986  0.0  1.0000
  Mn  Mn3042    1.0  0.3125000000000001  0.18749999999999997  0.0  1.0000
  Mn  Mn3043    1.0  0.3125000000000001  0.3125  0.0  1.0000
  Mn  Mn3044    1.0  0.3125000000000001  0.4374999999999999  0.0  1.0000
  Mn  Mn3045    1.0  0.3125000000000001  0.4999999999999999  0.0  1.0000
  Mn  Mn3046    1.0  0.3125000000000001  0.625  0.0  1.0000
  Mn  Mn3047    1.0  0.3125000000000001  0.7499999999999999  0.0  1.0000
  Mn  Mn3048    1.0  0.3125000000000001  0.8749999999999998  0.0  1.0000
  Mn  Mn3049    1.0  0.3437500000000001  0.031249999999999993  0.9687500000000001  1.0000
  Mn  Mn3050    1.0  0.3437500000000001  0.09374999999999999  0.9687500000000001  1.0000
  Mn  Mn3051    1.0  0.3437500000000001  0.15625  0.9687500000000001  1.0000
  Mn  Mn3052    1.0  0.3437500000000001  0.21874999999999994  0.9687500000000001  1.0000
  Mn  Mn3053    1.0  0.3437500000000001  0.28125  0.9687500000000001  1.0000
  Mn  Mn3054    1.0  0.3437500000000001  0.34375  0.9687500000000001  1.0000
  Mn  Mn3055    1.0  0.3437500000000001  0.4062499999999999  0.9687500000000001  1.0000
  Mn  Mn3056    1.0  0.3437500000000001  0.4687499999999999  0.9687500000000001  1.0000
  Mn  Mn3057    1.0  0.375  0.0  0.9375000000000001  1.0000
  Mn  Mn3058    1.0  0.375  0.12499999999999997  0.9375000000000001  1.0000
  Mn  Mn3059    1.0  0.375  0.24999999999999994  0.9375000000000001  1.0000
  Mn  Mn3060    1.0  0.375  0.37499999999999994  0.9375000000000001  1.0000
  Mn  Mn3061    1.0  0.375  0.5625  0.9375000000000001  1.0000
  Mn  Mn3062    1.0  0.375  0.6875  0.9375000000000001  1.0000
  Mn  Mn3063    1.0  0.375  0.8124999999999998  0.9375000000000001  1.0000
  Mn  Mn3064    1.0  0.375  0.9374999999999998  0.9375000000000001  1.0000
  Mn  Mn3065    1.0  0.40625  0.031249999999999993  0.9062500000000001  1.0000
  Mn  Mn3066    1.0  0.40625  0.09374999999999999  0.9062500000000001  1.0000
  Mn  Mn3067    1.0  0.40625  0.15625  0.9062500000000001  1.0000
  Mn  Mn3068    1.0  0.40625  0.21874999999999994  0.9062500000000001  1.0000
  Mn  Mn3069    1.0  0.40625  0.28125  0.9062500000000001  1.0000
  Mn  Mn3070    1.0  0.40625  0.34375  0.9062500000000001  1.0000
  Mn  Mn3071    1.0  0.40625  0.4062499999999999  0.9062500000000001  1.0000
  Mn  Mn3072    1.0  0.40625  0.4687499999999999  0.9062500000000001  1.0000
  Mn  Mn3073    1.0  0.4375  0.062499999999999986  0.875  1.0000
  Mn  Mn3074    1.0  0.4375  0.18749999999999997  0.875  1.0000
  Mn  Mn3075    1.0  0.4375  0.3125  0.875  1.0000
  Mn  Mn3076    1.0  0.4375  0.4374999999999999  0.875  1.0000
  Mn  Mn3077    1.0  0.4375  0.4999999999999999  0.875  1.0000
  Mn  Mn3078    1.0  0.4375  0.625  0.875  1.0000
  Mn  Mn3079    1.0  0.4375  0.7499999999999999  0.875  1.0000
  Mn  Mn3080    1.0  0.4375  0.8749999999999998  0.875  1.0000
  Mn  Mn3081    1.0  0.46875  0.031249999999999993  0.84375  1.0000
  Mn  Mn3082    1.0  0.46875  0.09374999999999999  0.84375  1.0000
  Mn  Mn3083    1.0  0.46875  0.15625  0.84375  1.0000
  Mn  Mn3084    1.0  0.46875  0.21874999999999994  0.84375  1.0000
  Mn  Mn3085    1.0  0.46875  0.28125  0.84375  1.0000
  Mn  Mn3086    1.0  0.46875  0.34375  0.84375  1.0000
  Mn  Mn3087    1.0  0.46875  0.4062499999999999  0.84375  1.0000
  Mn  Mn3088    1.0  0.46875  0.4687499999999999  0.84375  1.0000
  Mn  Mn3089    1.0  0.49999999999999994  0.0  0.8125  1.0000
  Mn  Mn3090    1.0  0.49999999999999994  0.12499999999999997  0.8125  1.0000
  Mn  Mn3091    1.0  0.49999999999999994  0.24999999999999994  0.8125  1.0000
  Mn  Mn3092    1.0  0.49999999999999994  0.37499999999999994  0.8125  1.0000
  Mn  Mn3093    1.0  0.49999999999999994  0.5625  0.8125  1.0000
  Mn  Mn3094    1.0  0.49999999999999994  0.6875  0.8125  1.0000
  Mn  Mn3095    1.0  0.49999999999999994  0.8124999999999998  0.8125  1.0000
  Mn  Mn3096    1.0  0.49999999999999994  0.9374999999999998  0.8125  1.0000
  Mn  Mn3097    1.0  0.53125  0.031249999999999993  0.78125  1.0000
  Mn  Mn3098    1.0  0.53125  0.09374999999999999  0.78125  1.0000
  Mn  Mn3099    1.0  0.53125  0.15625  0.78125  1.0000
  Mn  Mn3100    1.0  0.53125  0.21874999999999994  0.78125  1.0000
  Mn  Mn3101    1.0  0.53125  0.28125  0.78125  1.0000
  Mn  Mn3102    1.0  0.53125  0.34375  0.78125  1.0000
  Mn  Mn3103    1.0  0.53125  0.4062499999999999  0.78125  1.0000
  Mn  Mn3104    1.0  0.53125  0.4687499999999999  0.78125  1.0000
  Mn  Mn3105    1.0  0.5625  0.062499999999999986  0.75  1.0000
  Mn  Mn3106    1.0  0.5625  0.18749999999999997  0.75  1.0000
  Mn  Mn3107    1.0  0.5625  0.3125  0.75  1.0000
  Mn  Mn3108    1.0  0.5625  0.4374999999999999  0.75  1.0000
  Mn  Mn3109    1.0  0.5625  0.4999999999999999  0.75  1.0000
  Mn  Mn3110    1.0  0.5625  0.625  0.75  1.0000
  Mn  Mn3111    1.0  0.5625  0.7499999999999999  0.75  1.0000
  Mn  Mn3112    1.0  0.5625  0.8749999999999998  0.75  1.0000
  Mn  Mn3113    1.0  0.59375  0.031249999999999993  0.71875  1.0000
  Mn  Mn3114    1.0  0.59375  0.09374999999999999  0.71875  1.0000
  Mn  Mn3115    1.0  0.59375  0.15625  0.71875  1.0000
  Mn  Mn3116    1.0  0.59375  0.21874999999999994  0.71875  1.0000
  Mn  Mn3117    1.0  0.59375  0.28125  0.71875  1.0000
  Mn  Mn3118    1.0  0.59375  0.34375  0.71875  1.0000
  Mn  Mn3119    1.0  0.59375  0.4062499999999999  0.71875  1.0000
  Mn  Mn3120    1.0  0.59375  0.4687499999999999  0.71875  1.0000
  Mn  Mn3121    1.0  0.6250000000000002  0.0  0.6875000000000001  1.0000
  Mn  Mn3122    1.0  0.6250000000000002  0.12499999999999997  0.6875000000000001  1.0000
  Mn  Mn3123    1.0  0.6250000000000002  0.24999999999999994  0.6875000000000001  1.0000
  Mn  Mn3124    1.0  0.6250000000000002  0.37499999999999994  0.6875000000000001  1.0000
  Mn  Mn3125    1.0  0.6250000000000002  0.5625  0.6875000000000001  1.0000
  Mn  Mn3126    1.0  0.6250000000000002  0.6875  0.6875000000000001  1.0000
  Mn  Mn3127    1.0  0.6250000000000002  0.8124999999999998  0.6875000000000001  1.0000
  Mn  Mn3128    1.0  0.6250000000000002  0.9374999999999998  0.6875000000000001  1.0000
  Mn  Mn3129    1.0  0.65625  0.031249999999999993  0.6562500000000001  1.0000
  Mn  Mn3130    1.0  0.65625  0.09374999999999999  0.6562500000000001  1.0000
  Mn  Mn3131    1.0  0.65625  0.15625  0.6562500000000001  1.0000
  Mn  Mn3132    1.0  0.65625  0.21874999999999994  0.6562500000000001  1.0000
  Mn  Mn3133    1.0  0.65625  0.28125  0.6562500000000001  1.0000
  Mn  Mn3134    1.0  0.65625  0.34375  0.6562500000000001  1.0000
  Mn  Mn3135    1.0  0.65625  0.4062499999999999  0.6562500000000001  1.0000
  Mn  Mn3136    1.0  0.65625  0.4687499999999999  0.6562500000000001  1.0000
  Mn  Mn3137    1.0  0.6875000000000002  0.062499999999999986  0.6250000000000001  1.0000
  Mn  Mn3138    1.0  0.6875000000000002  0.18749999999999997  0.6250000000000001  1.0000
  Mn  Mn3139    1.0  0.6875000000000002  0.3125  0.6250000000000001  1.0000
  Mn  Mn3140    1.0  0.6875000000000002  0.4374999999999999  0.6250000000000001  1.0000
  Mn  Mn3141    1.0  0.6875000000000002  0.4999999999999999  0.6250000000000001  1.0000
  Mn  Mn3142    1.0  0.6875000000000002  0.625  0.6250000000000001  1.0000
  Mn  Mn3143    1.0  0.6875000000000002  0.7499999999999999  0.6250000000000001  1.0000
  Mn  Mn3144    1.0  0.6875000000000002  0.8749999999999998  0.6250000000000001  1.0000
  Mn  Mn3145    1.0  0.71875  0.031249999999999993  0.5937500000000001  1.0000
  Mn  Mn3146    1.0  0.71875  0.09374999999999999  0.5937500000000001  1.0000
  Mn  Mn3147    1.0  0.71875  0.15625  0.5937500000000001  1.0000
  Mn  Mn3148    1.0  0.71875  0.21874999999999994  0.5937500000000001  1.0000
  Mn  Mn3149    1.0  0.71875  0.28125  0.5937500000000001  1.0000
  Mn  Mn3150    1.0  0.71875  0.34375  0.5937500000000001  1.0000
  Mn  Mn3151    1.0  0.71875  0.4062499999999999  0.5937500000000001  1.0000
  Mn  Mn3152    1.0  0.71875  0.4687499999999999  0.5937500000000001  1.0000
  Mn  Mn3153    1.0  0.75  0.0  0.5625000000000001  1.0000
  Mn  Mn3154    1.0  0.75  0.12499999999999997  0.5625000000000001  1.0000
  Mn  Mn3155    1.0  0.75  0.24999999999999994  0.5625000000000001  1.0000
  Mn  Mn3156    1.0  0.75  0.37499999999999994  0.5625000000000001  1.0000
  Mn  Mn3157    1.0  0.75  0.5625  0.5625000000000001  1.0000
  Mn  Mn3158    1.0  0.75  0.6875  0.5625000000000001  1.0000
  Mn  Mn3159    1.0  0.75  0.8124999999999998  0.5625000000000001  1.0000
  Mn  Mn3160    1.0  0.75  0.9374999999999998  0.5625000000000001  1.0000
  Mn  Mn3161    1.0  0.78125  0.031249999999999993  0.53125  1.0000
  Mn  Mn3162    1.0  0.78125  0.09374999999999999  0.53125  1.0000
  Mn  Mn3163    1.0  0.78125  0.15625  0.53125  1.0000
  Mn  Mn3164    1.0  0.78125  0.21874999999999994  0.53125  1.0000
  Mn  Mn3165    1.0  0.78125  0.28125  0.53125  1.0000
  Mn  Mn3166    1.0  0.78125  0.34375  0.53125  1.0000
  Mn  Mn3167    1.0  0.78125  0.4062499999999999  0.53125  1.0000
  Mn  Mn3168    1.0  0.78125  0.4687499999999999  0.53125  1.0000
  Mn  Mn3169    1.0  0.8125  0.062499999999999986  0.5  1.0000
  Mn  Mn3170    1.0  0.8125  0.18749999999999997  0.5  1.0000
  Mn  Mn3171    1.0  0.8125  0.3125  0.5  1.0000
  Mn  Mn3172    1.0  0.8125  0.4374999999999999  0.5  1.0000
  Mn  Mn3173    1.0  0.8125  0.4999999999999999  0.5  1.0000
  Mn  Mn3174    1.0  0.8125  0.625  0.5  1.0000
  Mn  Mn3175    1.0  0.8125  0.7499999999999999  0.5  1.0000
  Mn  Mn3176    1.0  0.8125  0.8749999999999998  0.5  1.0000
  Mn  Mn3177    1.0  0.8437500000000002  0.031249999999999993  0.4687499999999999  1.0000
  Mn  Mn3178    1.0  0.8437500000000002  0.09374999999999999  0.4687499999999999  1.0000
  Mn  Mn3179    1.0  0.8437500000000002  0.15625  0.4687499999999999  1.0000
  Mn  Mn3180    1.0  0.8437500000000002  0.21874999999999994  0.4687499999999999  1.0000
  Mn  Mn3181    1.0  0.8437500000000002  0.28125  0.4687499999999999  1.0000
  Mn  Mn3182    1.0  0.8437500000000002  0.34375  0.4687499999999999  1.0000
  Mn  Mn3183    1.0  0.8437500000000002  0.4062499999999999  0.4687499999999999  1.0000
  Mn  Mn3184    1.0  0.8437500000000002  0.4687499999999999  0.4687499999999999  1.0000
  Mn  Mn3185    1.0  0.875  0.0  0.43749999999999994  1.0000
  Mn  Mn3186    1.0  0.875  0.12499999999999997  0.43749999999999994  1.0000
  Mn  Mn3187    1.0  0.875  0.24999999999999994  0.43749999999999994  1.0000
  Mn  Mn3188    1.0  0.875  0.37499999999999994  0.43749999999999994  1.0000
  Mn  Mn3189    1.0  0.875  0.5625  0.43749999999999994  1.0000
  Mn  Mn3190    1.0  0.875  0.6875  0.43749999999999994  1.0000
  Mn  Mn3191    1.0  0.875  0.8124999999999998  0.43749999999999994  1.0000
  Mn  Mn3192    1.0  0.875  0.9374999999999998  0.43749999999999994  1.0000
  Mn  Mn3193    1.0  0.9062500000000002  0.031249999999999993  0.40624999999999994  1.0000
  Mn  Mn3194    1.0  0.9062500000000002  0.09374999999999999  0.40624999999999994  1.0000
  Mn  Mn3195    1.0  0.9062500000000002  0.15625  0.40624999999999994  1.0000
  Mn  Mn3196    1.0  0.9062500000000002  0.21874999999999994  0.40624999999999994  1.0000
  Mn  Mn3197    1.0  0.9062500000000002  0.28125  0.40624999999999994  1.0000
  Mn  Mn3198    1.0  0.9062500000000002  0.34375  0.40624999999999994  1.0000
  Mn  Mn3199    1.0  0.9062500000000002  0.4062499999999999  0.40624999999999994  1.0000
  Mn  Mn3200    1.0  0.9062500000000002  0.4687499999999999  0.40624999999999994  1.0000
  Mn  Mn3201    1.0  0.9375  0.062499999999999986  0.37499999999999994  1.0000
  Mn  Mn3202    1.0  0.9375  0.18749999999999997  0.37499999999999994  1.0000
  Mn  Mn3203    1.0  0.9375  0.3125  0.37499999999999994  1.0000
  Mn  Mn3204    1.0  0.9375  0.4374999999999999  0.37499999999999994  1.0000
  Mn  Mn3205    1.0  0.9375  0.4999999999999999  0.37499999999999994  1.0000
  Mn  Mn3206    1.0  0.9375  0.625  0.37499999999999994  1.0000
  Mn  Mn3207    1.0  0.9375  0.7499999999999999  0.37499999999999994  1.0000
  Mn  Mn3208    1.0  0.9375  0.8749999999999998  0.37499999999999994  1.0000
  Mn  Mn3209    1.0  0.9687500000000002  0.031249999999999993  0.34375000000000006  1.0000
  Mn  Mn3210    1.0  0.9687500000000002  0.09374999999999999  0.34375000000000006  1.0000
  Mn  Mn3211    1.0  0.9687500000000002  0.15625  0.34375000000000006  1.0000
  Mn  Mn3212    1.0  0.9687500000000002  0.21874999999999994  0.34375000000000006  1.0000
  Mn  Mn3213    1.0  0.9687500000000002  0.28125  0.34375000000000006  1.0000
  Mn  Mn3214    1.0  0.9687500000000002  0.34375  0.34375000000000006  1.0000
  Mn  Mn3215    1.0  0.9687500000000002  0.4062499999999999  0.34375000000000006  1.0000
  Mn  Mn3216    1.0  0.9687500000000002  0.4687499999999999  0.34375000000000006  1.0000
  Mn  Mn3217    1.0  0.375  0.0  0.0  1.0000
  Mn  Mn3218    1.0  0.375  0.12499999999999997  0.0  1.0000
  Mn  Mn3219    1.0  0.375  0.24999999999999994  0.0  1.0000
  Mn  Mn3220    1.0  0.375  0.37499999999999994  0.0  1.0000
  Mn  Mn3221    1.0  0.375  0.5625  0.0  1.0000
  Mn  Mn3222    1.0  0.375  0.6875  0.0  1.0000
  Mn  Mn3223    1.0  0.375  0.8124999999999998  0.0  1.0000
  Mn  Mn3224    1.0  0.375  0.9374999999999998  0.0  1.0000
  Mn  Mn3225    1.0  0.40625  0.53125  0.9687500000000001  1.0000
  Mn  Mn3226    1.0  0.40625  0.59375  0.9687500000000001  1.0000
  Mn  Mn3227    1.0  0.40625  0.65625  0.9687500000000001  1.0000
  Mn  Mn3228    1.0  0.40625  0.7187499999999999  0.9687500000000001  1.0000
  Mn  Mn3229    1.0  0.40625  0.7812499999999999  0.9687500000000001  1.0000
  Mn  Mn3230    1.0  0.40625  0.8437499999999998  0.9687500000000001  1.0000
  Mn  Mn3231    1.0  0.40625  0.9062499999999998  0.9687500000000001  1.0000
  Mn  Mn3232    1.0  0.40625  0.9687499999999998  0.9687500000000001  1.0000
  Mn  Mn3233    1.0  0.4375  0.062499999999999986  0.9375000000000001  1.0000
  Mn  Mn3234    1.0  0.4375  0.18749999999999997  0.9375000000000001  1.0000
  Mn  Mn3235    1.0  0.4375  0.3125  0.9375000000000001  1.0000
  Mn  Mn3236    1.0  0.4375  0.4374999999999999  0.9375000000000001  1.0000
  Mn  Mn3237    1.0  0.4375  0.4999999999999999  0.9375000000000001  1.0000
  Mn  Mn3238    1.0  0.4375  0.625  0.9375000000000001  1.0000
  Mn  Mn3239    1.0  0.4375  0.7499999999999999  0.9375000000000001  1.0000
  Mn  Mn3240    1.0  0.4375  0.8749999999999998  0.9375000000000001  1.0000
  Mn  Mn3241    1.0  0.46875  0.53125  0.9062500000000001  1.0000
  Mn  Mn3242    1.0  0.46875  0.59375  0.9062500000000001  1.0000
  Mn  Mn3243    1.0  0.46875  0.65625  0.9062500000000001  1.0000
  Mn  Mn3244    1.0  0.46875  0.7187499999999999  0.9062500000000001  1.0000
  Mn  Mn3245    1.0  0.46875  0.7812499999999999  0.9062500000000001  1.0000
  Mn  Mn3246    1.0  0.46875  0.8437499999999998  0.9062500000000001  1.0000
  Mn  Mn3247    1.0  0.46875  0.9062499999999998  0.9062500000000001  1.0000
  Mn  Mn3248    1.0  0.46875  0.9687499999999998  0.9062500000000001  1.0000
  Mn  Mn3249    1.0  0.49999999999999994  0.0  0.875  1.0000
  Mn  Mn3250    1.0  0.49999999999999994  0.12499999999999997  0.875  1.0000
  Mn  Mn3251    1.0  0.49999999999999994  0.24999999999999994  0.875  1.0000
  Mn  Mn3252    1.0  0.49999999999999994  0.37499999999999994  0.875  1.0000
  Mn  Mn3253    1.0  0.49999999999999994  0.5625  0.875  1.0000
  Mn  Mn3254    1.0  0.49999999999999994  0.6875  0.875  1.0000
  Mn  Mn3255    1.0  0.49999999999999994  0.8124999999999998  0.875  1.0000
  Mn  Mn3256    1.0  0.49999999999999994  0.9374999999999998  0.875  1.0000
  Mn  Mn3257    1.0  0.53125  0.53125  0.84375  1.0000
  Mn  Mn3258    1.0  0.53125  0.59375  0.84375  1.0000
  Mn  Mn3259    1.0  0.53125  0.65625  0.84375  1.0000
  Mn  Mn3260    1.0  0.53125  0.7187499999999999  0.84375  1.0000
  Mn  Mn3261    1.0  0.53125  0.7812499999999999  0.84375  1.0000
  Mn  Mn3262    1.0  0.53125  0.8437499999999998  0.84375  1.0000
  Mn  Mn3263    1.0  0.53125  0.9062499999999998  0.84375  1.0000
  Mn  Mn3264    1.0  0.53125  0.9687499999999998  0.84375  1.0000
  Mn  Mn3265    1.0  0.5625  0.062499999999999986  0.8125  1.0000
  Mn  Mn3266    1.0  0.5625  0.18749999999999997  0.8125  1.0000
  Mn  Mn3267    1.0  0.5625  0.3125  0.8125  1.0000
  Mn  Mn3268    1.0  0.5625  0.4374999999999999  0.8125  1.0000
  Mn  Mn3269    1.0  0.5625  0.4999999999999999  0.8125  1.0000
  Mn  Mn3270    1.0  0.5625  0.625  0.8125  1.0000
  Mn  Mn3271    1.0  0.5625  0.7499999999999999  0.8125  1.0000
  Mn  Mn3272    1.0  0.5625  0.8749999999999998  0.8125  1.0000
  Mn  Mn3273    1.0  0.59375  0.53125  0.78125  1.0000
  Mn  Mn3274    1.0  0.59375  0.59375  0.78125  1.0000
  Mn  Mn3275    1.0  0.59375  0.65625  0.78125  1.0000
  Mn  Mn3276    1.0  0.59375  0.7187499999999999  0.78125  1.0000
  Mn  Mn3277    1.0  0.59375  0.7812499999999999  0.78125  1.0000
  Mn  Mn3278    1.0  0.59375  0.8437499999999998  0.78125  1.0000
  Mn  Mn3279    1.0  0.59375  0.9062499999999998  0.78125  1.0000
  Mn  Mn3280    1.0  0.59375  0.9687499999999998  0.78125  1.0000
  Mn  Mn3281    1.0  0.6250000000000002  0.0  0.75  1.0000
  Mn  Mn3282    1.0  0.6250000000000002  0.12499999999999997  0.75  1.0000
  Mn  Mn3283    1.0  0.6250000000000002  0.24999999999999994  0.75  1.0000
  Mn  Mn3284    1.0  0.6250000000000002  0.37499999999999994  0.75  1.0000
  Mn  Mn3285    1.0  0.6250000000000002  0.5625  0.75  1.0000
  Mn  Mn3286    1.0  0.6250000000000002  0.6875  0.75  1.0000
  Mn  Mn3287    1.0  0.6250000000000002  0.8124999999999998  0.75  1.0000
  Mn  Mn3288    1.0  0.6250000000000002  0.9374999999999998  0.75  1.0000
  Mn  Mn3289    1.0  0.65625  0.53125  0.71875  1.0000
  Mn  Mn3290    1.0  0.65625  0.59375  0.71875  1.0000
  Mn  Mn3291    1.0  0.65625  0.65625  0.71875  1.0000
  Mn  Mn3292    1.0  0.65625  0.7187499999999999  0.71875  1.0000
  Mn  Mn3293    1.0  0.65625  0.7812499999999999  0.71875  1.0000
  Mn  Mn3294    1.0  0.65625  0.8437499999999998  0.71875  1.0000
  Mn  Mn3295    1.0  0.65625  0.9062499999999998  0.71875  1.0000
  Mn  Mn3296    1.0  0.65625  0.9687499999999998  0.71875  1.0000
  Mn  Mn3297    1.0  0.6875000000000002  0.062499999999999986  0.6875000000000001  1.0000
  Mn  Mn3298    1.0  0.6875000000000002  0.18749999999999997  0.6875000000000001  1.0000
  Mn  Mn3299    1.0  0.6875000000000002  0.3125  0.6875000000000001  1.0000
  Mn  Mn3300    1.0  0.6875000000000002  0.4374999999999999  0.6875000000000001  1.0000
  Mn  Mn3301    1.0  0.6875000000000002  0.4999999999999999  0.6875000000000001  1.0000
  Mn  Mn3302    1.0  0.6875000000000002  0.625  0.6875000000000001  1.0000
  Mn  Mn3303    1.0  0.6875000000000002  0.7499999999999999  0.6875000000000001  1.0000
  Mn  Mn3304    1.0  0.6875000000000002  0.8749999999999998  0.6875000000000001  1.0000
  Mn  Mn3305    1.0  0.71875  0.53125  0.6562500000000001  1.0000
  Mn  Mn3306    1.0  0.71875  0.59375  0.6562500000000001  1.0000
  Mn  Mn3307    1.0  0.71875  0.65625  0.6562500000000001  1.0000
  Mn  Mn3308    1.0  0.71875  0.7187499999999999  0.6562500000000001  1.0000
  Mn  Mn3309    1.0  0.71875  0.7812499999999999  0.6562500000000001  1.0000
  Mn  Mn3310    1.0  0.71875  0.8437499999999998  0.6562500000000001  1.0000
  Mn  Mn3311    1.0  0.71875  0.9062499999999998  0.6562500000000001  1.0000
  Mn  Mn3312    1.0  0.71875  0.9687499999999998  0.6562500000000001  1.0000
  Mn  Mn3313    1.0  0.75  0.0  0.6250000000000001  1.0000
  Mn  Mn3314    1.0  0.75  0.12499999999999997  0.6250000000000001  1.0000
  Mn  Mn3315    1.0  0.75  0.24999999999999994  0.6250000000000001  1.0000
  Mn  Mn3316    1.0  0.75  0.37499999999999994  0.6250000000000001  1.0000
  Mn  Mn3317    1.0  0.75  0.5625  0.6250000000000001  1.0000
  Mn  Mn3318    1.0  0.75  0.6875  0.6250000000000001  1.0000
  Mn  Mn3319    1.0  0.75  0.8124999999999998  0.6250000000000001  1.0000
  Mn  Mn3320    1.0  0.75  0.9374999999999998  0.6250000000000001  1.0000
  Mn  Mn3321    1.0  0.78125  0.53125  0.5937500000000001  1.0000
  Mn  Mn3322    1.0  0.78125  0.59375  0.5937500000000001  1.0000
  Mn  Mn3323    1.0  0.78125  0.65625  0.5937500000000001  1.0000
  Mn  Mn3324    1.0  0.78125  0.7187499999999999  0.5937500000000001  1.0000
  Mn  Mn3325    1.0  0.78125  0.7812499999999999  0.5937500000000001  1.0000
  Mn  Mn3326    1.0  0.78125  0.8437499999999998  0.5937500000000001  1.0000
  Mn  Mn3327    1.0  0.78125  0.9062499999999998  0.5937500000000001  1.0000
  Mn  Mn3328    1.0  0.78125  0.9687499999999998  0.5937500000000001  1.0000
  Mn  Mn3329    1.0  0.8125  0.062499999999999986  0.5625000000000001  1.0000
  Mn  Mn3330    1.0  0.8125  0.18749999999999997  0.5625000000000001  1.0000
  Mn  Mn3331    1.0  0.8125  0.3125  0.5625000000000001  1.0000
  Mn  Mn3332    1.0  0.8125  0.4374999999999999  0.5625000000000001  1.0000
  Mn  Mn3333    1.0  0.8125  0.4999999999999999  0.5625000000000001  1.0000
  Mn  Mn3334    1.0  0.8125  0.625  0.5625000000000001  1.0000
  Mn  Mn3335    1.0  0.8125  0.7499999999999999  0.5625000000000001  1.0000
  Mn  Mn3336    1.0  0.8125  0.8749999999999998  0.5625000000000001  1.0000
  Mn  Mn3337    1.0  0.8437500000000002  0.53125  0.53125  1.0000
  Mn  Mn3338    1.0  0.8437500000000002  0.59375  0.53125  1.0000
  Mn  Mn3339    1.0  0.8437500000000002  0.65625  0.53125  1.0000
  Mn  Mn3340    1.0  0.8437500000000002  0.7187499999999999  0.53125  1.0000
  Mn  Mn3341    1.0  0.8437500000000002  0.7812499999999999  0.53125  1.0000
  Mn  Mn3342    1.0  0.8437500000000002  0.8437499999999998  0.53125  1.0000
  Mn  Mn3343    1.0  0.8437500000000002  0.9062499999999998  0.53125  1.0000
  Mn  Mn3344    1.0  0.8437500000000002  0.9687499999999998  0.53125  1.0000
  Mn  Mn3345    1.0  0.875  0.0  0.5  1.0000
  Mn  Mn3346    1.0  0.875  0.12499999999999997  0.5  1.0000
  Mn  Mn3347    1.0  0.875  0.24999999999999994  0.5  1.0000
  Mn  Mn3348    1.0  0.875  0.37499999999999994  0.5  1.0000
  Mn  Mn3349    1.0  0.875  0.5625  0.5  1.0000
  Mn  Mn3350    1.0  0.875  0.6875  0.5  1.0000
  Mn  Mn3351    1.0  0.875  0.8124999999999998  0.5  1.0000
  Mn  Mn3352    1.0  0.875  0.9374999999999998  0.5  1.0000
  Mn  Mn3353    1.0  0.9062500000000002  0.53125  0.4687499999999999  1.0000
  Mn  Mn3354    1.0  0.9062500000000002  0.59375  0.4687499999999999  1.0000
  Mn  Mn3355    1.0  0.9062500000000002  0.65625  0.4687499999999999  1.0000
  Mn  Mn3356    1.0  0.9062500000000002  0.7187499999999999  0.4687499999999999  1.0000
  Mn  Mn3357    1.0  0.9062500000000002  0.7812499999999999  0.4687499999999999  1.0000
  Mn  Mn3358    1.0  0.9062500000000002  0.8437499999999998  0.4687499999999999  1.0000
  Mn  Mn3359    1.0  0.9062500000000002  0.9062499999999998  0.4687499999999999  1.0000
  Mn  Mn3360    1.0  0.9062500000000002  0.9687499999999998  0.4687499999999999  1.0000
  Mn  Mn3361    1.0  0.9375  0.062499999999999986  0.43749999999999994  1.0000
  Mn  Mn3362    1.0  0.9375  0.18749999999999997  0.43749999999999994  1.0000
  Mn  Mn3363    1.0  0.9375  0.3125  0.43749999999999994  1.0000
  Mn  Mn3364    1.0  0.9375  0.4374999999999999  0.43749999999999994  1.0000
  Mn  Mn3365    1.0  0.9375  0.4999999999999999  0.43749999999999994  1.0000
  Mn  Mn3366    1.0  0.9375  0.625  0.43749999999999994  1.0000
  Mn  Mn3367    1.0  0.9375  0.7499999999999999  0.43749999999999994  1.0000
  Mn  Mn3368    1.0  0.9375  0.8749999999999998  0.43749999999999994  1.0000
  Mn  Mn3369    1.0  0.9687500000000002  0.53125  0.40624999999999994  1.0000
  Mn  Mn3370    1.0  0.9687500000000002  0.59375  0.40624999999999994  1.0000
  Mn  Mn3371    1.0  0.9687500000000002  0.65625  0.40624999999999994  1.0000
  Mn  Mn3372    1.0  0.9687500000000002  0.7187499999999999  0.40624999999999994  1.0000
  Mn  Mn3373    1.0  0.9687500000000002  0.7812499999999999  0.40624999999999994  1.0000
  Mn  Mn3374    1.0  0.9687500000000002  0.8437499999999998  0.40624999999999994  1.0000
  Mn  Mn3375    1.0  0.9687500000000002  0.9062499999999998  0.40624999999999994  1.0000
  Mn  Mn3376    1.0  0.9687500000000002  0.9687499999999998  0.40624999999999994  1.0000
  Mn  Mn3377    1.0  0.4375  0.062499999999999986  0.0  1.0000
  Mn  Mn3378    1.0  0.4375  0.18749999999999997  0.0  1.0000
  Mn  Mn3379    1.0  0.4375  0.3125  0.0  1.0000
  Mn  Mn3380    1.0  0.4375  0.4374999999999999  0.0  1.0000
  Mn  Mn3381    1.0  0.4375  0.4999999999999999  0.0  1.0000
  Mn  Mn3382    1.0  0.4375  0.625  0.0  1.0000
  Mn  Mn3383    1.0  0.4375  0.7499999999999999  0.0  1.0000
  Mn  Mn3384    1.0  0.4375  0.8749999999999998  0.0  1.0000
  Mn  Mn3385    1.0  0.46875  0.031249999999999993  0.9687500000000001  1.0000
  Mn  Mn3386    1.0  0.46875  0.09374999999999999  0.9687500000000001  1.0000
  Mn  Mn3387    1.0  0.46875  0.15625  0.9687500000000001  1.0000
  Mn  Mn3388    1.0  0.46875  0.21874999999999994  0.9687500000000001  1.0000
  Mn  Mn3389    1.0  0.46875  0.28125  0.9687500000000001  1.0000
  Mn  Mn3390    1.0  0.46875  0.34375  0.9687500000000001  1.0000
  Mn  Mn3391    1.0  0.46875  0.4062499999999999  0.9687500000000001  1.0000
  Mn  Mn3392    1.0  0.46875  0.4687499999999999  0.9687500000000001  1.0000
  Mn  Mn3393    1.0  0.49999999999999994  0.0  0.9375000000000001  1.0000
  Mn  Mn3394    1.0  0.49999999999999994  0.12499999999999997  0.9375000000000001  1.0000
  Mn  Mn3395    1.0  0.49999999999999994  0.24999999999999994  0.9375000000000001  1.0000
  Mn  Mn3396    1.0  0.49999999999999994  0.37499999999999994  0.9375000000000001  1.0000
  Mn  Mn3397    1.0  0.49999999999999994  0.5625  0.9375000000000001  1.0000
  Mn  Mn3398    1.0  0.49999999999999994  0.6875  0.9375000000000001  1.0000
  Mn  Mn3399    1.0  0.49999999999999994  0.8124999999999998  0.9375000000000001  1.0000
  Mn  Mn3400    1.0  0.49999999999999994  0.9374999999999998  0.9375000000000001  1.0000
  Mn  Mn3401    1.0  0.53125  0.031249999999999993  0.9062500000000001  1.0000
  Mn  Mn3402    1.0  0.53125  0.09374999999999999  0.9062500000000001  1.0000
  Mn  Mn3403    1.0  0.53125  0.15625  0.9062500000000001  1.0000
  Mn  Mn3404    1.0  0.53125  0.21874999999999994  0.9062500000000001  1.0000
  Mn  Mn3405    1.0  0.53125  0.28125  0.9062500000000001  1.0000
  Mn  Mn3406    1.0  0.53125  0.34375  0.9062500000000001  1.0000
  Mn  Mn3407    1.0  0.53125  0.4062499999999999  0.9062500000000001  1.0000
  Mn  Mn3408    1.0  0.53125  0.4687499999999999  0.9062500000000001  1.0000
  Mn  Mn3409    1.0  0.5625  0.062499999999999986  0.875  1.0000
  Mn  Mn3410    1.0  0.5625  0.18749999999999997  0.875  1.0000
  Mn  Mn3411    1.0  0.5625  0.3125  0.875  1.0000
  Mn  Mn3412    1.0  0.5625  0.4374999999999999  0.875  1.0000
  Mn  Mn3413    1.0  0.5625  0.4999999999999999  0.875  1.0000
  Mn  Mn3414    1.0  0.5625  0.625  0.875  1.0000
  Mn  Mn3415    1.0  0.5625  0.7499999999999999  0.875  1.0000
  Mn  Mn3416    1.0  0.5625  0.8749999999999998  0.875  1.0000
  Mn  Mn3417    1.0  0.59375  0.031249999999999993  0.84375  1.0000
  Mn  Mn3418    1.0  0.59375  0.09374999999999999  0.84375  1.0000
  Mn  Mn3419    1.0  0.59375  0.15625  0.84375  1.0000
  Mn  Mn3420    1.0  0.59375  0.21874999999999994  0.84375  1.0000
  Mn  Mn3421    1.0  0.59375  0.28125  0.84375  1.0000
  Mn  Mn3422    1.0  0.59375  0.34375  0.84375  1.0000
  Mn  Mn3423    1.0  0.59375  0.4062499999999999  0.84375  1.0000
  Mn  Mn3424    1.0  0.59375  0.4687499999999999  0.84375  1.0000
  Mn  Mn3425    1.0  0.6250000000000002  0.0  0.8125  1.0000
  Mn  Mn3426    1.0  0.6250000000000002  0.12499999999999997  0.8125  1.0000
  Mn  Mn3427    1.0  0.6250000000000002  0.24999999999999994  0.8125  1.0000
  Mn  Mn3428    1.0  0.6250000000000002  0.37499999999999994  0.8125  1.0000
  Mn  Mn3429    1.0  0.6250000000000002  0.5625  0.8125  1.0000
  Mn  Mn3430    1.0  0.6250000000000002  0.6875  0.8125  1.0000
  Mn  Mn3431    1.0  0.6250000000000002  0.8124999999999998  0.8125  1.0000
  Mn  Mn3432    1.0  0.6250000000000002  0.9374999999999998  0.8125  1.0000
  Mn  Mn3433    1.0  0.65625  0.031249999999999993  0.78125  1.0000
  Mn  Mn3434    1.0  0.65625  0.09374999999999999  0.78125  1.0000
  Mn  Mn3435    1.0  0.65625  0.15625  0.78125  1.0000
  Mn  Mn3436    1.0  0.65625  0.21874999999999994  0.78125  1.0000
  Mn  Mn3437    1.0  0.65625  0.28125  0.78125  1.0000
  Mn  Mn3438    1.0  0.65625  0.34375  0.78125  1.0000
  Mn  Mn3439    1.0  0.65625  0.4062499999999999  0.78125  1.0000
  Mn  Mn3440    1.0  0.65625  0.4687499999999999  0.78125  1.0000
  Mn  Mn3441    1.0  0.6875000000000002  0.062499999999999986  0.75  1.0000
  Mn  Mn3442    1.0  0.6875000000000002  0.18749999999999997  0.75  1.0000
  Mn  Mn3443    1.0  0.6875000000000002  0.3125  0.75  1.0000
  Mn  Mn3444    1.0  0.6875000000000002  0.4374999999999999  0.75  1.0000
  Mn  Mn3445    1.0  0.6875000000000002  0.4999999999999999  0.75  1.0000
  Mn  Mn3446    1.0  0.6875000000000002  0.625  0.75  1.0000
  Mn  Mn3447    1.0  0.6875000000000002  0.7499999999999999  0.75  1.0000
  Mn  Mn3448    1.0  0.6875000000000002  0.8749999999999998  0.75  1.0000
  Mn  Mn3449    1.0  0.71875  0.031249999999999993  0.71875  1.0000
  Mn  Mn3450    1.0  0.71875  0.09374999999999999  0.71875  1.0000
  Mn  Mn3451    1.0  0.71875  0.15625  0.71875  1.0000
  Mn  Mn3452    1.0  0.71875  0.21874999999999994  0.71875  1.0000
  Mn  Mn3453    1.0  0.71875  0.28125  0.71875  1.0000
  Mn  Mn3454    1.0  0.71875  0.34375  0.71875  1.0000
  Mn  Mn3455    1.0  0.71875  0.4062499999999999  0.71875  1.0000
  Mn  Mn3456    1.0  0.71875  0.4687499999999999  0.71875  1.0000
  Mn  Mn3457    1.0  0.75  0.0  0.6875000000000001  1.0000
  Mn  Mn3458    1.0  0.75  0.12499999999999997  0.6875000000000001  1.0000
  Mn  Mn3459    1.0  0.75  0.24999999999999994  0.6875000000000001  1.0000
  Mn  Mn3460    1.0  0.75  0.37499999999999994  0.6875000000000001  1.0000
  Mn  Mn3461    1.0  0.75  0.5625  0.6875000000000001  1.0000
  Mn  Mn3462    1.0  0.75  0.6875  0.6875000000000001  1.0000
  Mn  Mn3463    1.0  0.75  0.8124999999999998  0.6875000000000001  1.0000
  Mn  Mn3464    1.0  0.75  0.9374999999999998  0.6875000000000001  1.0000
  Mn  Mn3465    1.0  0.78125  0.031249999999999993  0.6562500000000001  1.0000
  Mn  Mn3466    1.0  0.78125  0.09374999999999999  0.6562500000000001  1.0000
  Mn  Mn3467    1.0  0.78125  0.15625  0.6562500000000001  1.0000
  Mn  Mn3468    1.0  0.78125  0.21874999999999994  0.6562500000000001  1.0000
  Mn  Mn3469    1.0  0.78125  0.28125  0.6562500000000001  1.0000
  Mn  Mn3470    1.0  0.78125  0.34375  0.6562500000000001  1.0000
  Mn  Mn3471    1.0  0.78125  0.4062499999999999  0.6562500000000001  1.0000
  Mn  Mn3472    1.0  0.78125  0.4687499999999999  0.6562500000000001  1.0000
  Mn  Mn3473    1.0  0.8125  0.062499999999999986  0.6250000000000001  1.0000
  Mn  Mn3474    1.0  0.8125  0.18749999999999997  0.6250000000000001  1.0000
  Mn  Mn3475    1.0  0.8125  0.3125  0.6250000000000001  1.0000
  Mn  Mn3476    1.0  0.8125  0.4374999999999999  0.6250000000000001  1.0000
  Mn  Mn3477    1.0  0.8125  0.4999999999999999  0.6250000000000001  1.0000
  Mn  Mn3478    1.0  0.8125  0.625  0.6250000000000001  1.0000
  Mn  Mn3479    1.0  0.8125  0.7499999999999999  0.6250000000000001  1.0000
  Mn  Mn3480    1.0  0.8125  0.8749999999999998  0.6250000000000001  1.0000
  Mn  Mn3481    1.0  0.8437500000000002  0.031249999999999993  0.5937500000000001  1.0000
  Mn  Mn3482    1.0  0.8437500000000002  0.09374999999999999  0.5937500000000001  1.0000
  Mn  Mn3483    1.0  0.8437500000000002  0.15625  0.5937500000000001  1.0000
  Mn  Mn3484    1.0  0.8437500000000002  0.21874999999999994  0.5937500000000001  1.0000
  Mn  Mn3485    1.0  0.8437500000000002  0.28125  0.5937500000000001  1.0000
  Mn  Mn3486    1.0  0.8437500000000002  0.34375  0.5937500000000001  1.0000
  Mn  Mn3487    1.0  0.8437500000000002  0.4062499999999999  0.5937500000000001  1.0000
  Mn  Mn3488    1.0  0.8437500000000002  0.4687499999999999  0.5937500000000001  1.0000
  Mn  Mn3489    1.0  0.875  0.0  0.5625000000000001  1.0000
  Mn  Mn3490    1.0  0.875  0.12499999999999997  0.5625000000000001  1.0000
  Mn  Mn3491    1.0  0.875  0.24999999999999994  0.5625000000000001  1.0000
  Mn  Mn3492    1.0  0.875  0.37499999999999994  0.5625000000000001  1.0000
  Mn  Mn3493    1.0  0.875  0.5625  0.5625000000000001  1.0000
  Mn  Mn3494    1.0  0.875  0.6875  0.5625000000000001  1.0000
  Mn  Mn3495    1.0  0.875  0.8124999999999998  0.5625000000000001  1.0000
  Mn  Mn3496    1.0  0.875  0.9374999999999998  0.5625000000000001  1.0000
  Mn  Mn3497    1.0  0.9062500000000002  0.031249999999999993  0.53125  1.0000
  Mn  Mn3498    1.0  0.9062500000000002  0.09374999999999999  0.53125  1.0000
  Mn  Mn3499    1.0  0.9062500000000002  0.15625  0.53125  1.0000
  Mn  Mn3500    1.0  0.9062500000000002  0.21874999999999994  0.53125  1.0000
  Mn  Mn3501    1.0  0.9062500000000002  0.28125  0.53125  1.0000
  Mn  Mn3502    1.0  0.9062500000000002  0.34375  0.53125  1.0000
  Mn  Mn3503    1.0  0.9062500000000002  0.4062499999999999  0.53125  1.0000
  Mn  Mn3504    1.0  0.9062500000000002  0.4687499999999999  0.53125  1.0000
  Mn  Mn3505    1.0  0.9375  0.062499999999999986  0.5  1.0000
  Mn  Mn3506    1.0  0.9375  0.18749999999999997  0.5  1.0000
  Mn  Mn3507    1.0  0.9375  0.3125  0.5  1.0000
  Mn  Mn3508    1.0  0.9375  0.4374999999999999  0.5  1.0000
  Mn  Mn3509    1.0  0.9375  0.4999999999999999  0.5  1.0000
  Mn  Mn3510    1.0  0.9375  0.625  0.5  1.0000
  Mn  Mn3511    1.0  0.9375  0.7499999999999999  0.5  1.0000
  Mn  Mn3512    1.0  0.9375  0.8749999999999998  0.5  1.0000
  Mn  Mn3513    1.0  0.9687500000000002  0.031249999999999993  0.4687499999999999  1.0000
  Mn  Mn3514    1.0  0.9687500000000002  0.09374999999999999  0.4687499999999999  1.0000
  Mn  Mn3515    1.0  0.9687500000000002  0.15625  0.4687499999999999  1.0000
  Mn  Mn3516    1.0  0.9687500000000002  0.21874999999999994  0.4687499999999999  1.0000
  Mn  Mn3517    1.0  0.9687500000000002  0.28125  0.4687499999999999  1.0000
  Mn  Mn3518    1.0  0.9687500000000002  0.34375  0.4687499999999999  1.0000
  Mn  Mn3519    1.0  0.9687500000000002  0.4062499999999999  0.4687499999999999  1.0000
  Mn  Mn3520    1.0  0.9687500000000002  0.4687499999999999  0.4687499999999999  1.0000
  Mn  Mn3521    1.0  0.49999999999999994  0.0  0.0  1.0000
  Mn  Mn3522    1.0  0.49999999999999994  0.12499999999999997  0.0  1.0000
  Mn  Mn3523    1.0  0.49999999999999994  0.24999999999999994  0.0  1.0000
  Mn  Mn3524    1.0  0.49999999999999994  0.37499999999999994  0.0  1.0000
  Mn  Mn3525    1.0  0.49999999999999994  0.5625  0.0  1.0000
  Mn  Mn3526    1.0  0.49999999999999994  0.6875  0.0  1.0000
  Mn  Mn3527    1.0  0.49999999999999994  0.8124999999999998  0.0  1.0000
  Mn  Mn3528    1.0  0.49999999999999994  0.9374999999999998  0.0  1.0000
  Mn  Mn3529    1.0  0.53125  0.53125  0.9687500000000001  1.0000
  Mn  Mn3530    1.0  0.53125  0.59375  0.9687500000000001  1.0000
  Mn  Mn3531    1.0  0.53125  0.65625  0.9687500000000001  1.0000
  Mn  Mn3532    1.0  0.53125  0.7187499999999999  0.9687500000000001  1.0000
  Mn  Mn3533    1.0  0.53125  0.7812499999999999  0.9687500000000001  1.0000
  Mn  Mn3534    1.0  0.53125  0.8437499999999998  0.9687500000000001  1.0000
  Mn  Mn3535    1.0  0.53125  0.9062499999999998  0.9687500000000001  1.0000
  Mn  Mn3536    1.0  0.53125  0.9687499999999998  0.9687500000000001  1.0000
  Mn  Mn3537    1.0  0.5625  0.062499999999999986  0.9375000000000001  1.0000
  Mn  Mn3538    1.0  0.5625  0.18749999999999997  0.9375000000000001  1.0000
  Mn  Mn3539    1.0  0.5625  0.3125  0.9375000000000001  1.0000
  Mn  Mn3540    1.0  0.5625  0.4374999999999999  0.9375000000000001  1.0000
  Mn  Mn3541    1.0  0.5625  0.4999999999999999  0.9375000000000001  1.0000
  Mn  Mn3542    1.0  0.5625  0.625  0.9375000000000001  1.0000
  Mn  Mn3543    1.0  0.5625  0.7499999999999999  0.9375000000000001  1.0000
  Mn  Mn3544    1.0  0.5625  0.8749999999999998  0.9375000000000001  1.0000
  Mn  Mn3545    1.0  0.59375  0.53125  0.9062500000000001  1.0000
  Mn  Mn3546    1.0  0.59375  0.59375  0.9062500000000001  1.0000
  Mn  Mn3547    1.0  0.59375  0.65625  0.9062500000000001  1.0000
  Mn  Mn3548    1.0  0.59375  0.7187499999999999  0.9062500000000001  1.0000
  Mn  Mn3549    1.0  0.59375  0.7812499999999999  0.9062500000000001  1.0000
  Mn  Mn3550    1.0  0.59375  0.8437499999999998  0.9062500000000001  1.0000
  Mn  Mn3551    1.0  0.59375  0.9062499999999998  0.9062500000000001  1.0000
  Mn  Mn3552    1.0  0.59375  0.9687499999999998  0.9062500000000001  1.0000
  Mn  Mn3553    1.0  0.6250000000000002  0.0  0.875  1.0000
  Mn  Mn3554    1.0  0.6250000000000002  0.12499999999999997  0.875  1.0000
  Mn  Mn3555    1.0  0.6250000000000002  0.24999999999999994  0.875  1.0000
  Mn  Mn3556    1.0  0.6250000000000002  0.37499999999999994  0.875  1.0000
  Mn  Mn3557    1.0  0.6250000000000002  0.5625  0.875  1.0000
  Mn  Mn3558    1.0  0.6250000000000002  0.6875  0.875  1.0000
  Mn  Mn3559    1.0  0.6250000000000002  0.8124999999999998  0.875  1.0000
  Mn  Mn3560    1.0  0.6250000000000002  0.9374999999999998  0.875  1.0000
  Mn  Mn3561    1.0  0.65625  0.53125  0.84375  1.0000
  Mn  Mn3562    1.0  0.65625  0.59375  0.84375  1.0000
  Mn  Mn3563    1.0  0.65625  0.65625  0.84375  1.0000
  Mn  Mn3564    1.0  0.65625  0.7187499999999999  0.84375  1.0000
  Mn  Mn3565    1.0  0.65625  0.7812499999999999  0.84375  1.0000
  Mn  Mn3566    1.0  0.65625  0.8437499999999998  0.84375  1.0000
  Mn  Mn3567    1.0  0.65625  0.9062499999999998  0.84375  1.0000
  Mn  Mn3568    1.0  0.65625  0.9687499999999998  0.84375  1.0000
  Mn  Mn3569    1.0  0.6875000000000002  0.062499999999999986  0.8125  1.0000
  Mn  Mn3570    1.0  0.6875000000000002  0.18749999999999997  0.8125  1.0000
  Mn  Mn3571    1.0  0.6875000000000002  0.3125  0.8125  1.0000
  Mn  Mn3572    1.0  0.6875000000000002  0.4374999999999999  0.8125  1.0000
  Mn  Mn3573    1.0  0.6875000000000002  0.4999999999999999  0.8125  1.0000
  Mn  Mn3574    1.0  0.6875000000000002  0.625  0.8125  1.0000
  Mn  Mn3575    1.0  0.6875000000000002  0.7499999999999999  0.8125  1.0000
  Mn  Mn3576    1.0  0.6875000000000002  0.8749999999999998  0.8125  1.0000
  Mn  Mn3577    1.0  0.71875  0.53125  0.78125  1.0000
  Mn  Mn3578    1.0  0.71875  0.59375  0.78125  1.0000
  Mn  Mn3579    1.0  0.71875  0.65625  0.78125  1.0000
  Mn  Mn3580    1.0  0.71875  0.7187499999999999  0.78125  1.0000
  Mn  Mn3581    1.0  0.71875  0.7812499999999999  0.78125  1.0000
  Mn  Mn3582    1.0  0.71875  0.8437499999999998  0.78125  1.0000
  Mn  Mn3583    1.0  0.71875  0.9062499999999998  0.78125  1.0000
  Mn  Mn3584    1.0  0.71875  0.9687499999999998  0.78125  1.0000
  Mn  Mn3585    1.0  0.75  0.0  0.75  1.0000
  Mn  Mn3586    1.0  0.75  0.12499999999999997  0.75  1.0000
  Mn  Mn3587    1.0  0.75  0.24999999999999994  0.75  1.0000
  Mn  Mn3588    1.0  0.75  0.37499999999999994  0.75  1.0000
  Mn  Mn3589    1.0  0.75  0.5625  0.75  1.0000
  Mn  Mn3590    1.0  0.75  0.6875  0.75  1.0000
  Mn  Mn3591    1.0  0.75  0.8124999999999998  0.75  1.0000
  Mn  Mn3592    1.0  0.75  0.9374999999999998  0.75  1.0000
  Mn  Mn3593    1.0  0.78125  0.53125  0.71875  1.0000
  Mn  Mn3594    1.0  0.78125  0.59375  0.71875  1.0000
  Mn  Mn3595    1.0  0.78125  0.65625  0.71875  1.0000
  Mn  Mn3596    1.0  0.78125  0.7187499999999999  0.71875  1.0000
  Mn  Mn3597    1.0  0.78125  0.7812499999999999  0.71875  1.0000
  Mn  Mn3598    1.0  0.78125  0.8437499999999998  0.71875  1.0000
  Mn  Mn3599    1.0  0.78125  0.9062499999999998  0.71875  1.0000
  Mn  Mn3600    1.0  0.78125  0.9687499999999998  0.71875  1.0000
  Mn  Mn3601    1.0  0.8125  0.062499999999999986  0.6875000000000001  1.0000
  Mn  Mn3602    1.0  0.8125  0.18749999999999997  0.6875000000000001  1.0000
  Mn  Mn3603    1.0  0.8125  0.3125  0.6875000000000001  1.0000
  Mn  Mn3604    1.0  0.8125  0.4374999999999999  0.6875000000000001  1.0000
  Mn  Mn3605    1.0  0.8125  0.4999999999999999  0.6875000000000001  1.0000
  Mn  Mn3606    1.0  0.8125  0.625  0.6875000000000001  1.0000
  Mn  Mn3607    1.0  0.8125  0.7499999999999999  0.6875000000000001  1.0000
  Mn  Mn3608    1.0  0.8125  0.8749999999999998  0.6875000000000001  1.0000
  Mn  Mn3609    1.0  0.8437500000000002  0.53125  0.6562500000000001  1.0000
  Mn  Mn3610    1.0  0.8437500000000002  0.59375  0.6562500000000001  1.0000
  Mn  Mn3611    1.0  0.8437500000000002  0.65625  0.6562500000000001  1.0000
  Mn  Mn3612    1.0  0.8437500000000002  0.7187499999999999  0.6562500000000001  1.0000
  Mn  Mn3613    1.0  0.8437500000000002  0.7812499999999999  0.6562500000000001  1.0000
  Mn  Mn3614    1.0  0.8437500000000002  0.8437499999999998  0.6562500000000001  1.0000
  Mn  Mn3615    1.0  0.8437500000000002  0.9062499999999998  0.6562500000000001  1.0000
  Mn  Mn3616    1.0  0.8437500000000002  0.9687499999999998  0.6562500000000001  1.0000
  Mn  Mn3617    1.0  0.875  0.0  0.6250000000000001  1.0000
  Mn  Mn3618    1.0  0.875  0.12499999999999997  0.6250000000000001  1.0000
  Mn  Mn3619    1.0  0.875  0.24999999999999994  0.6250000000000001  1.0000
  Mn  Mn3620    1.0  0.875  0.37499999999999994  0.6250000000000001  1.0000
  Mn  Mn3621    1.0  0.875  0.5625  0.6250000000000001  1.0000
  Mn  Mn3622    1.0  0.875  0.6875  0.6250000000000001  1.0000
  Mn  Mn3623    1.0  0.875  0.8124999999999998  0.6250000000000001  1.0000
  Mn  Mn3624    1.0  0.875  0.9374999999999998  0.6250000000000001  1.0000
  Mn  Mn3625    1.0  0.9062500000000002  0.53125  0.5937500000000001  1.0000
  Mn  Mn3626    1.0  0.9062500000000002  0.59375  0.5937500000000001  1.0000
  Mn  Mn3627    1.0  0.9062500000000002  0.65625  0.5937500000000001  1.0000
  Mn  Mn3628    1.0  0.9062500000000002  0.7187499999999999  0.5937500000000001  1.0000
  Mn  Mn3629    1.0  0.9062500000000002  0.7812499999999999  0.5937500000000001  1.0000
  Mn  Mn3630    1.0  0.9062500000000002  0.8437499999999998  0.5937500000000001  1.0000
  Mn  Mn3631    1.0  0.9062500000000002  0.9062499999999998  0.5937500000000001  1.0000
  Mn  Mn3632    1.0  0.9062500000000002  0.9687499999999998  0.5937500000000001  1.0000
  Mn  Mn3633    1.0  0.9375  0.062499999999999986  0.5625000000000001  1.0000
  Mn  Mn3634    1.0  0.9375  0.18749999999999997  0.5625000000000001  1.0000
  Mn  Mn3635    1.0  0.9375  0.3125  0.5625000000000001  1.0000
  Mn  Mn3636    1.0  0.9375  0.4374999999999999  0.5625000000000001  1.0000
  Mn  Mn3637    1.0  0.9375  0.4999999999999999  0.5625000000000001  1.0000
  Mn  Mn3638    1.0  0.9375  0.625  0.5625000000000001  1.0000
  Mn  Mn3639    1.0  0.9375  0.7499999999999999  0.5625000000000001  1.0000
  Mn  Mn3640    1.0  0.9375  0.8749999999999998  0.5625000000000001  1.0000
  Mn  Mn3641    1.0  0.9687500000000002  0.53125  0.53125  1.0000
  Mn  Mn3642    1.0  0.9687500000000002  0.59375  0.53125  1.0000
  Mn  Mn3643    1.0  0.9687500000000002  0.65625  0.53125  1.0000
  Mn  Mn3644    1.0  0.9687500000000002  0.7187499999999999  0.53125  1.0000
  Mn  Mn3645    1.0  0.9687500000000002  0.7812499999999999  0.53125  1.0000
  Mn  Mn3646    1.0  0.9687500000000002  0.8437499999999998  0.53125  1.0000
  Mn  Mn3647    1.0  0.9687500000000002  0.9062499999999998  0.53125  1.0000
  Mn  Mn3648    1.0  0.9687500000000002  0.9687499999999998  0.53125  1.0000
  Mn  Mn3649    1.0  0.5625  0.062499999999999986  0.0  1.0000
  Mn  Mn3650    1.0  0.5625  0.18749999999999997  0.0  1.0000
  Mn  Mn3651    1.0  0.5625  0.3125  0.0  1.0000
  Mn  Mn3652    1.0  0.5625  0.4374999999999999  0.0  1.0000
  Mn  Mn3653    1.0  0.5625  0.4999999999999999  0.0  1.0000
  Mn  Mn3654    1.0  0.5625  0.625  0.0  1.0000
  Mn  Mn3655    1.0  0.5625  0.7499999999999999  0.0  1.0000
  Mn  Mn3656    1.0  0.5625  0.8749999999999998  0.0  1.0000
  Mn  Mn3657    1.0  0.59375  0.031249999999999993  0.9687500000000001  1.0000
  Mn  Mn3658    1.0  0.59375  0.09374999999999999  0.9687500000000001  1.0000
  Mn  Mn3659    1.0  0.59375  0.15625  0.9687500000000001  1.0000
  Mn  Mn3660    1.0  0.59375  0.21874999999999994  0.9687500000000001  1.0000
  Mn  Mn3661    1.0  0.59375  0.28125  0.9687500000000001  1.0000
  Mn  Mn3662    1.0  0.59375  0.34375  0.9687500000000001  1.0000
  Mn  Mn3663    1.0  0.59375  0.4062499999999999  0.9687500000000001  1.0000
  Mn  Mn3664    1.0  0.59375  0.4687499999999999  0.9687500000000001  1.0000
  Mn  Mn3665    1.0  0.6250000000000002  0.0  0.9375000000000001  1.0000
  Mn  Mn3666    1.0  0.6250000000000002  0.12499999999999997  0.9375000000000001  1.0000
  Mn  Mn3667    1.0  0.6250000000000002  0.24999999999999994  0.9375000000000001  1.0000
  Mn  Mn3668    1.0  0.6250000000000002  0.37499999999999994  0.9375000000000001  1.0000
  Mn  Mn3669    1.0  0.6250000000000002  0.5625  0.9375000000000001  1.0000
  Mn  Mn3670    1.0  0.6250000000000002  0.6875  0.9375000000000001  1.0000
  Mn  Mn3671    1.0  0.6250000000000002  0.8124999999999998  0.9375000000000001  1.0000
  Mn  Mn3672    1.0  0.6250000000000002  0.9374999999999998  0.9375000000000001  1.0000
  Mn  Mn3673    1.0  0.65625  0.031249999999999993  0.9062500000000001  1.0000
  Mn  Mn3674    1.0  0.65625  0.09374999999999999  0.9062500000000001  1.0000
  Mn  Mn3675    1.0  0.65625  0.15625  0.9062500000000001  1.0000
  Mn  Mn3676    1.0  0.65625  0.21874999999999994  0.9062500000000001  1.0000
  Mn  Mn3677    1.0  0.65625  0.28125  0.9062500000000001  1.0000
  Mn  Mn3678    1.0  0.65625  0.34375  0.9062500000000001  1.0000
  Mn  Mn3679    1.0  0.65625  0.4062499999999999  0.9062500000000001  1.0000
  Mn  Mn3680    1.0  0.65625  0.4687499999999999  0.9062500000000001  1.0000
  Mn  Mn3681    1.0  0.6875000000000002  0.062499999999999986  0.875  1.0000
  Mn  Mn3682    1.0  0.6875000000000002  0.18749999999999997  0.875  1.0000
  Mn  Mn3683    1.0  0.6875000000000002  0.3125  0.875  1.0000
  Mn  Mn3684    1.0  0.6875000000000002  0.4374999999999999  0.875  1.0000
  Mn  Mn3685    1.0  0.6875000000000002  0.4999999999999999  0.875  1.0000
  Mn  Mn3686    1.0  0.6875000000000002  0.625  0.875  1.0000
  Mn  Mn3687    1.0  0.6875000000000002  0.7499999999999999  0.875  1.0000
  Mn  Mn3688    1.0  0.6875000000000002  0.8749999999999998  0.875  1.0000
  Mn  Mn3689    1.0  0.71875  0.031249999999999993  0.84375  1.0000
  Mn  Mn3690    1.0  0.71875  0.09374999999999999  0.84375  1.0000
  Mn  Mn3691    1.0  0.71875  0.15625  0.84375  1.0000
  Mn  Mn3692    1.0  0.71875  0.21874999999999994  0.84375  1.0000
  Mn  Mn3693    1.0  0.71875  0.28125  0.84375  1.0000
  Mn  Mn3694    1.0  0.71875  0.34375  0.84375  1.0000
  Mn  Mn3695    1.0  0.71875  0.4062499999999999  0.84375  1.0000
  Mn  Mn3696    1.0  0.71875  0.4687499999999999  0.84375  1.0000
  Mn  Mn3697    1.0  0.75  0.0  0.8125  1.0000
  Mn  Mn3698    1.0  0.75  0.12499999999999997  0.8125  1.0000
  Mn  Mn3699    1.0  0.75  0.24999999999999994  0.8125  1.0000
  Mn  Mn3700    1.0  0.75  0.37499999999999994  0.8125  1.0000
  Mn  Mn3701    1.0  0.75  0.5625  0.8125  1.0000
  Mn  Mn3702    1.0  0.75  0.6875  0.8125  1.0000
  Mn  Mn3703    1.0  0.75  0.8124999999999998  0.8125  1.0000
  Mn  Mn3704    1.0  0.75  0.9374999999999998  0.8125  1.0000
  Mn  Mn3705    1.0  0.78125  0.031249999999999993  0.78125  1.0000
  Mn  Mn3706    1.0  0.78125  0.09374999999999999  0.78125  1.0000
  Mn  Mn3707    1.0  0.78125  0.15625  0.78125  1.0000
  Mn  Mn3708    1.0  0.78125  0.21874999999999994  0.78125  1.0000
  Mn  Mn3709    1.0  0.78125  0.28125  0.78125  1.0000
  Mn  Mn3710    1.0  0.78125  0.34375  0.78125  1.0000
  Mn  Mn3711    1.0  0.78125  0.4062499999999999  0.78125  1.0000
  Mn  Mn3712    1.0  0.78125  0.4687499999999999  0.78125  1.0000
  Mn  Mn3713    1.0  0.8125  0.062499999999999986  0.75  1.0000
  Mn  Mn3714    1.0  0.8125  0.18749999999999997  0.75  1.0000
  Mn  Mn3715    1.0  0.8125  0.3125  0.75  1.0000
  Mn  Mn3716    1.0  0.8125  0.4374999999999999  0.75  1.0000
  Mn  Mn3717    1.0  0.8125  0.4999999999999999  0.75  1.0000
  Mn  Mn3718    1.0  0.8125  0.625  0.75  1.0000
  Mn  Mn3719    1.0  0.8125  0.7499999999999999  0.75  1.0000
  Mn  Mn3720    1.0  0.8125  0.8749999999999998  0.75  1.0000
  Mn  Mn3721    1.0  0.8437500000000002  0.031249999999999993  0.71875  1.0000
  Mn  Mn3722    1.0  0.8437500000000002  0.09374999999999999  0.71875  1.0000
  Mn  Mn3723    1.0  0.8437500000000002  0.15625  0.71875  1.0000
  Mn  Mn3724    1.0  0.8437500000000002  0.21874999999999994  0.71875  1.0000
  Mn  Mn3725    1.0  0.8437500000000002  0.28125  0.71875  1.0000
  Mn  Mn3726    1.0  0.8437500000000002  0.34375  0.71875  1.0000
  Mn  Mn3727    1.0  0.8437500000000002  0.4062499999999999  0.71875  1.0000
  Mn  Mn3728    1.0  0.8437500000000002  0.4687499999999999  0.71875  1.0000
  Mn  Mn3729    1.0  0.875  0.0  0.6875000000000001  1.0000
  Mn  Mn3730    1.0  0.875  0.12499999999999997  0.6875000000000001  1.0000
  Mn  Mn3731    1.0  0.875  0.24999999999999994  0.6875000000000001  1.0000
  Mn  Mn3732    1.0  0.875  0.37499999999999994  0.6875000000000001  1.0000
  Mn  Mn3733    1.0  0.875  0.5625  0.6875000000000001  1.0000
  Mn  Mn3734    1.0  0.875  0.6875  0.6875000000000001  1.0000
  Mn  Mn3735    1.0  0.875  0.8124999999999998  0.6875000000000001  1.0000
  Mn  Mn3736    1.0  0.875  0.9374999999999998  0.6875000000000001  1.0000
  Mn  Mn3737    1.0  0.9062500000000002  0.031249999999999993  0.6562500000000001  1.0000
  Mn  Mn3738    1.0  0.9062500000000002  0.09374999999999999  0.6562500000000001  1.0000
  Mn  Mn3739    1.0  0.9062500000000002  0.15625  0.6562500000000001  1.0000
  Mn  Mn3740    1.0  0.9062500000000002  0.21874999999999994  0.6562500000000001  1.0000
  Mn  Mn3741    1.0  0.9062500000000002  0.28125  0.6562500000000001  1.0000
  Mn  Mn3742    1.0  0.9062500000000002  0.34375  0.6562500000000001  1.0000
  Mn  Mn3743    1.0  0.9062500000000002  0.4062499999999999  0.6562500000000001  1.0000
  Mn  Mn3744    1.0  0.9062500000000002  0.4687499999999999  0.6562500000000001  1.0000
  Mn  Mn3745    1.0  0.9375  0.062499999999999986  0.6250000000000001  1.0000
  Mn  Mn3746    1.0  0.9375  0.18749999999999997  0.6250000000000001  1.0000
  Mn  Mn3747    1.0  0.9375  0.3125  0.6250000000000001  1.0000
  Mn  Mn3748    1.0  0.9375  0.4374999999999999  0.6250000000000001  1.0000
  Mn  Mn3749    1.0  0.9375  0.4999999999999999  0.6250000000000001  1.0000
  Mn  Mn3750    1.0  0.9375  0.625  0.6250000000000001  1.0000
  Mn  Mn3751    1.0  0.9375  0.7499999999999999  0.6250000000000001  1.0000
  Mn  Mn3752    1.0  0.9375  0.8749999999999998  0.6250000000000001  1.0000
  Mn  Mn3753    1.0  0.9687500000000002  0.031249999999999993  0.5937500000000001  1.0000
  Mn  Mn3754    1.0  0.9687500000000002  0.09374999999999999  0.5937500000000001  1.0000
  Mn  Mn3755    1.0  0.9687500000000002  0.15625  0.5937500000000001  1.0000
  Mn  Mn3756    1.0  0.9687500000000002  0.21874999999999994  0.5937500000000001  1.0000
  Mn  Mn3757    1.0  0.9687500000000002  0.28125  0.5937500000000001  1.0000
  Mn  Mn3758    1.0  0.9687500000000002  0.34375  0.5937500000000001  1.0000
  Mn  Mn3759    1.0  0.9687500000000002  0.4062499999999999  0.5937500000000001  1.0000
  Mn  Mn3760    1.0  0.9687500000000002  0.4687499999999999  0.5937500000000001  1.0000
  Mn  Mn3761    1.0  0.6250000000000002  0.0  0.0  1.0000
  Mn  Mn3762    1.0  0.6250000000000002  0.12499999999999997  0.0  1.0000
  Mn  Mn3763    1.0  0.6250000000000002  0.24999999999999994  0.0  1.0000
  Mn  Mn3764    1.0  0.6250000000000002  0.37499999999999994  0.0  1.0000
  Mn  Mn3765    1.0  0.6250000000000002  0.5625  0.0  1.0000
  Mn  Mn3766    1.0  0.6250000000000002  0.6875  0.0  1.0000
  Mn  Mn3767    1.0  0.6250000000000002  0.8124999999999998  0.0  1.0000
  Mn  Mn3768    1.0  0.6250000000000002  0.9374999999999998  0.0  1.0000
  Mn  Mn3769    1.0  0.65625  0.53125  0.9687500000000001  1.0000
  Mn  Mn3770    1.0  0.65625  0.59375  0.9687500000000001  1.0000
  Mn  Mn3771    1.0  0.65625  0.65625  0.9687500000000001  1.0000
  Mn  Mn3772    1.0  0.65625  0.7187499999999999  0.9687500000000001  1.0000
  Mn  Mn3773    1.0  0.65625  0.7812499999999999  0.9687500000000001  1.0000
  Mn  Mn3774    1.0  0.65625  0.8437499999999998  0.9687500000000001  1.0000
  Mn  Mn3775    1.0  0.65625  0.9062499999999998  0.9687500000000001  1.0000
  Mn  Mn3776    1.0  0.65625  0.9687499999999998  0.9687500000000001  1.0000
  Mn  Mn3777    1.0  0.6875000000000002  0.062499999999999986  0.9375000000000001  1.0000
  Mn  Mn3778    1.0  0.6875000000000002  0.18749999999999997  0.9375000000000001  1.0000
  Mn  Mn3779    1.0  0.6875000000000002  0.3125  0.9375000000000001  1.0000
  Mn  Mn3780    1.0  0.6875000000000002  0.4374999999999999  0.9375000000000001  1.0000
  Mn  Mn3781    1.0  0.6875000000000002  0.4999999999999999  0.9375000000000001  1.0000
  Mn  Mn3782    1.0  0.6875000000000002  0.625  0.9375000000000001  1.0000
  Mn  Mn3783    1.0  0.6875000000000002  0.7499999999999999  0.9375000000000001  1.0000
  Mn  Mn3784    1.0  0.6875000000000002  0.8749999999999998  0.9375000000000001  1.0000
  Mn  Mn3785    1.0  0.71875  0.53125  0.9062500000000001  1.0000
  Mn  Mn3786    1.0  0.71875  0.59375  0.9062500000000001  1.0000
  Mn  Mn3787    1.0  0.71875  0.65625  0.9062500000000001  1.0000
  Mn  Mn3788    1.0  0.71875  0.7187499999999999  0.9062500000000001  1.0000
  Mn  Mn3789    1.0  0.71875  0.7812499999999999  0.9062500000000001  1.0000
  Mn  Mn3790    1.0  0.71875  0.8437499999999998  0.9062500000000001  1.0000
  Mn  Mn3791    1.0  0.71875  0.9062499999999998  0.9062500000000001  1.0000
  Mn  Mn3792    1.0  0.71875  0.9687499999999998  0.9062500000000001  1.0000
  Mn  Mn3793    1.0  0.75  0.0  0.875  1.0000
  Mn  Mn3794    1.0  0.75  0.12499999999999997  0.875  1.0000
  Mn  Mn3795    1.0  0.75  0.24999999999999994  0.875  1.0000
  Mn  Mn3796    1.0  0.75  0.37499999999999994  0.875  1.0000
  Mn  Mn3797    1.0  0.75  0.5625  0.875  1.0000
  Mn  Mn3798    1.0  0.75  0.6875  0.875  1.0000
  Mn  Mn3799    1.0  0.75  0.8124999999999998  0.875  1.0000
  Mn  Mn3800    1.0  0.75  0.9374999999999998  0.875  1.0000
  Mn  Mn3801    1.0  0.78125  0.53125  0.84375  1.0000
  Mn  Mn3802    1.0  0.78125  0.59375  0.84375  1.0000
  Mn  Mn3803    1.0  0.78125  0.65625  0.84375  1.0000
  Mn  Mn3804    1.0  0.78125  0.7187499999999999  0.84375  1.0000
  Mn  Mn3805    1.0  0.78125  0.7812499999999999  0.84375  1.0000
  Mn  Mn3806    1.0  0.78125  0.8437499999999998  0.84375  1.0000
  Mn  Mn3807    1.0  0.78125  0.9062499999999998  0.84375  1.0000
  Mn  Mn3808    1.0  0.78125  0.9687499999999998  0.84375  1.0000
  Mn  Mn3809    1.0  0.8125  0.062499999999999986  0.8125  1.0000
  Mn  Mn3810    1.0  0.8125  0.18749999999999997  0.8125  1.0000
  Mn  Mn3811    1.0  0.8125  0.3125  0.8125  1.0000
  Mn  Mn3812    1.0  0.8125  0.4374999999999999  0.8125  1.0000
  Mn  Mn3813    1.0  0.8125  0.4999999999999999  0.8125  1.0000
  Mn  Mn3814    1.0  0.8125  0.625  0.8125  1.0000
  Mn  Mn3815    1.0  0.8125  0.7499999999999999  0.8125  1.0000
  Mn  Mn3816    1.0  0.8125  0.8749999999999998  0.8125  1.0000
  Mn  Mn3817    1.0  0.8437500000000002  0.53125  0.78125  1.0000
  Mn  Mn3818    1.0  0.8437500000000002  0.59375  0.78125  1.0000
  Mn  Mn3819    1.0  0.8437500000000002  0.65625  0.78125  1.0000
  Mn  Mn3820    1.0  0.8437500000000002  0.7187499999999999  0.78125  1.0000
  Mn  Mn3821    1.0  0.8437500000000002  0.7812499999999999  0.78125  1.0000
  Mn  Mn3822    1.0  0.8437500000000002  0.8437499999999998  0.78125  1.0000
  Mn  Mn3823    1.0  0.8437500000000002  0.9062499999999998  0.78125  1.0000
  Mn  Mn3824    1.0  0.8437500000000002  0.9687499999999998  0.78125  1.0000
  Mn  Mn3825    1.0  0.875  0.0  0.75  1.0000
  Mn  Mn3826    1.0  0.875  0.12499999999999997  0.75  1.0000
  Mn  Mn3827    1.0  0.875  0.24999999999999994  0.75  1.0000
  Mn  Mn3828    1.0  0.875  0.37499999999999994  0.75  1.0000
  Mn  Mn3829    1.0  0.875  0.5625  0.75  1.0000
  Mn  Mn3830    1.0  0.875  0.6875  0.75  1.0000
  Mn  Mn3831    1.0  0.875  0.8124999999999998  0.75  1.0000
  Mn  Mn3832    1.0  0.875  0.9374999999999998  0.75  1.0000
  Mn  Mn3833    1.0  0.9062500000000002  0.53125  0.71875  1.0000
  Mn  Mn3834    1.0  0.9062500000000002  0.59375  0.71875  1.0000
  Mn  Mn3835    1.0  0.9062500000000002  0.65625  0.71875  1.0000
  Mn  Mn3836    1.0  0.9062500000000002  0.7187499999999999  0.71875  1.0000
  Mn  Mn3837    1.0  0.9062500000000002  0.7812499999999999  0.71875  1.0000
  Mn  Mn3838    1.0  0.9062500000000002  0.8437499999999998  0.71875  1.0000
  Mn  Mn3839    1.0  0.9062500000000002  0.9062499999999998  0.71875  1.0000
  Mn  Mn3840    1.0  0.9062500000000002  0.9687499999999998  0.71875  1.0000
  Mn  Mn3841    1.0  0.9375  0.062499999999999986  0.6875000000000001  1.0000
  Mn  Mn3842    1.0  0.9375  0.18749999999999997  0.6875000000000001  1.0000
  Mn  Mn3843    1.0  0.9375  0.3125  0.6875000000000001  1.0000
  Mn  Mn3844    1.0  0.9375  0.4374999999999999  0.6875000000000001  1.0000
  Mn  Mn3845    1.0  0.9375  0.4999999999999999  0.6875000000000001  1.0000
  Mn  Mn3846    1.0  0.9375  0.625  0.6875000000000001  1.0000
  Mn  Mn3847    1.0  0.9375  0.7499999999999999  0.6875000000000001  1.0000
  Mn  Mn3848    1.0  0.9375  0.8749999999999998  0.6875000000000001  1.0000
  Mn  Mn3849    1.0  0.9687500000000002  0.53125  0.6562500000000001  1.0000
  Mn  Mn3850    1.0  0.9687500000000002  0.59375  0.6562500000000001  1.0000
  Mn  Mn3851    1.0  0.9687500000000002  0.65625  0.6562500000000001  1.0000
  Mn  Mn3852    1.0  0.9687500000000002  0.7187499999999999  0.6562500000000001  1.0000
  Mn  Mn3853    1.0  0.9687500000000002  0.7812499999999999  0.6562500000000001  1.0000
  Mn  Mn3854    1.0  0.9687500000000002  0.8437499999999998  0.6562500000000001  1.0000
  Mn  Mn3855    1.0  0.9687500000000002  0.9062499999999998  0.6562500000000001  1.0000
  Mn  Mn3856    1.0  0.9687500000000002  0.9687499999999998  0.6562500000000001  1.0000
  Mn  Mn3857    1.0  0.6875000000000002  0.062499999999999986  0.0  1.0000
  Mn  Mn3858    1.0  0.6875000000000002  0.18749999999999997  0.0  1.0000
  Mn  Mn3859    1.0  0.6875000000000002  0.3125  0.0  1.0000
  Mn  Mn3860    1.0  0.6875000000000002  0.4374999999999999  0.0  1.0000
  Mn  Mn3861    1.0  0.6875000000000002  0.4999999999999999  0.0  1.0000
  Mn  Mn3862    1.0  0.6875000000000002  0.625  0.0  1.0000
  Mn  Mn3863    1.0  0.6875000000000002  0.7499999999999999  0.0  1.0000
  Mn  Mn3864    1.0  0.6875000000000002  0.8749999999999998  0.0  1.0000
  Mn  Mn3865    1.0  0.71875  0.031249999999999993  0.9687500000000001  1.0000
  Mn  Mn3866    1.0  0.71875  0.09374999999999999  0.9687500000000001  1.0000
  Mn  Mn3867    1.0  0.71875  0.15625  0.9687500000000001  1.0000
  Mn  Mn3868    1.0  0.71875  0.21874999999999994  0.9687500000000001  1.0000
  Mn  Mn3869    1.0  0.71875  0.28125  0.9687500000000001  1.0000
  Mn  Mn3870    1.0  0.71875  0.34375  0.9687500000000001  1.0000
  Mn  Mn3871    1.0  0.71875  0.4062499999999999  0.9687500000000001  1.0000
  Mn  Mn3872    1.0  0.71875  0.4687499999999999  0.9687500000000001  1.0000
  Mn  Mn3873    1.0  0.75  0.0  0.9375000000000001  1.0000
  Mn  Mn3874    1.0  0.75  0.12499999999999997  0.9375000000000001  1.0000
  Mn  Mn3875    1.0  0.75  0.24999999999999994  0.9375000000000001  1.0000
  Mn  Mn3876    1.0  0.75  0.37499999999999994  0.9375000000000001  1.0000
  Mn  Mn3877    1.0  0.75  0.5625  0.9375000000000001  1.0000
  Mn  Mn3878    1.0  0.75  0.6875  0.9375000000000001  1.0000
  Mn  Mn3879    1.0  0.75  0.8124999999999998  0.9375000000000001  1.0000
  Mn  Mn3880    1.0  0.75  0.9374999999999998  0.9375000000000001  1.0000
  Mn  Mn3881    1.0  0.78125  0.031249999999999993  0.9062500000000001  1.0000
  Mn  Mn3882    1.0  0.78125  0.09374999999999999  0.9062500000000001  1.0000
  Mn  Mn3883    1.0  0.78125  0.15625  0.9062500000000001  1.0000
  Mn  Mn3884    1.0  0.78125  0.21874999999999994  0.9062500000000001  1.0000
  Mn  Mn3885    1.0  0.78125  0.28125  0.9062500000000001  1.0000
  Mn  Mn3886    1.0  0.78125  0.34375  0.9062500000000001  1.0000
  Mn  Mn3887    1.0  0.78125  0.4062499999999999  0.9062500000000001  1.0000
  Mn  Mn3888    1.0  0.78125  0.4687499999999999  0.9062500000000001  1.0000
  Mn  Mn3889    1.0  0.8125  0.062499999999999986  0.875  1.0000
  Mn  Mn3890    1.0  0.8125  0.18749999999999997  0.875  1.0000
  Mn  Mn3891    1.0  0.8125  0.3125  0.875  1.0000
  Mn  Mn3892    1.0  0.8125  0.4374999999999999  0.875  1.0000
  Mn  Mn3893    1.0  0.8125  0.4999999999999999  0.875  1.0000
  Mn  Mn3894    1.0  0.8125  0.625  0.875  1.0000
  Mn  Mn3895    1.0  0.8125  0.7499999999999999  0.875  1.0000
  Mn  Mn3896    1.0  0.8125  0.8749999999999998  0.875  1.0000
  Mn  Mn3897    1.0  0.8437500000000002  0.031249999999999993  0.84375  1.0000
  Mn  Mn3898    1.0  0.8437500000000002  0.09374999999999999  0.84375  1.0000
  Mn  Mn3899    1.0  0.8437500000000002  0.15625  0.84375  1.0000
  Mn  Mn3900    1.0  0.8437500000000002  0.21874999999999994  0.84375  1.0000
  Mn  Mn3901    1.0  0.8437500000000002  0.28125  0.84375  1.0000
  Mn  Mn3902    1.0  0.8437500000000002  0.34375  0.84375  1.0000
  Mn  Mn3903    1.0  0.8437500000000002  0.4062499999999999  0.84375  1.0000
  Mn  Mn3904    1.0  0.8437500000000002  0.4687499999999999  0.84375  1.0000
  Mn  Mn3905    1.0  0.875  0.0  0.8125  1.0000
  Mn  Mn3906    1.0  0.875  0.12499999999999997  0.8125  1.0000
  Mn  Mn3907    1.0  0.875  0.24999999999999994  0.8125  1.0000
  Mn  Mn3908    1.0  0.875  0.37499999999999994  0.8125  1.0000
  Mn  Mn3909    1.0  0.875  0.5625  0.8125  1.0000
  Mn  Mn3910    1.0  0.875  0.6875  0.8125  1.0000
  Mn  Mn3911    1.0  0.875  0.8124999999999998  0.8125  1.0000
  Mn  Mn3912    1.0  0.875  0.9374999999999998  0.8125  1.0000
  Mn  Mn3913    1.0  0.9062500000000002  0.031249999999999993  0.78125  1.0000
  Mn  Mn3914    1.0  0.9062500000000002  0.09374999999999999  0.78125  1.0000
  Mn  Mn3915    1.0  0.9062500000000002  0.15625  0.78125  1.0000
  Mn  Mn3916    1.0  0.9062500000000002  0.21874999999999994  0.78125  1.0000
  Mn  Mn3917    1.0  0.9062500000000002  0.28125  0.78125  1.0000
  Mn  Mn3918    1.0  0.9062500000000002  0.34375  0.78125  1.0000
  Mn  Mn3919    1.0  0.9062500000000002  0.4062499999999999  0.78125  1.0000
  Mn  Mn3920    1.0  0.9062500000000002  0.4687499999999999  0.78125  1.0000
  Mn  Mn3921    1.0  0.9375  0.062499999999999986  0.75  1.0000
  Mn  Mn3922    1.0  0.9375  0.18749999999999997  0.75  1.0000
  Mn  Mn3923    1.0  0.9375  0.3125  0.75  1.0000
  Mn  Mn3924    1.0  0.9375  0.4374999999999999  0.75  1.0000
  Mn  Mn3925    1.0  0.9375  0.4999999999999999  0.75  1.0000
  Mn  Mn3926    1.0  0.9375  0.625  0.75  1.0000
  Mn  Mn3927    1.0  0.9375  0.7499999999999999  0.75  1.0000
  Mn  Mn3928    1.0  0.9375  0.8749999999999998  0.75  1.0000
  Mn  Mn3929    1.0  0.9687500000000002  0.031249999999999993  0.71875  1.0000
  Mn  Mn3930    1.0  0.9687500000000002  0.09374999999999999  0.71875  1.0000
  Mn  Mn3931    1.0  0.9687500000000002  0.15625  0.71875  1.0000
  Mn  Mn3932    1.0  0.9687500000000002  0.21874999999999994  0.71875  1.0000
  Mn  Mn3933    1.0  0.9687500000000002  0.28125  0.71875  1.0000
  Mn  Mn3934    1.0  0.9687500000000002  0.34375  0.71875  1.0000
  Mn  Mn3935    1.0  0.9687500000000002  0.4062499999999999  0.71875  1.0000
  Mn  Mn3936    1.0  0.9687500000000002  0.4687499999999999  0.71875  1.0000
  Mn  Mn3937    1.0  0.75  0.0  0.0  1.0000
  Mn  Mn3938    1.0  0.75  0.12499999999999997  0.0  1.0000
  Mn  Mn3939    1.0  0.75  0.24999999999999994  0.0  1.0000
  Mn  Mn3940    1.0  0.75  0.37499999999999994  0.0  1.0000
  Mn  Mn3941    1.0  0.75  0.5625  0.0  1.0000
  Mn  Mn3942    1.0  0.75  0.6875  0.0  1.0000
  Mn  Mn3943    1.0  0.75  0.8124999999999998  0.0  1.0000
  Mn  Mn3944    1.0  0.75  0.9374999999999998  0.0  1.0000
  Mn  Mn3945    1.0  0.78125  0.53125  0.9687500000000001  1.0000
  Mn  Mn3946    1.0  0.78125  0.59375  0.9687500000000001  1.0000
  Mn  Mn3947    1.0  0.78125  0.65625  0.9687500000000001  1.0000
  Mn  Mn3948    1.0  0.78125  0.7187499999999999  0.9687500000000001  1.0000
  Mn  Mn3949    1.0  0.78125  0.7812499999999999  0.9687500000000001  1.0000
  Mn  Mn3950    1.0  0.78125  0.8437499999999998  0.9687500000000001  1.0000
  Mn  Mn3951    1.0  0.78125  0.9062499999999998  0.9687500000000001  1.0000
  Mn  Mn3952    1.0  0.78125  0.9687499999999998  0.9687500000000001  1.0000
  Mn  Mn3953    1.0  0.8125  0.062499999999999986  0.9375000000000001  1.0000
  Mn  Mn3954    1.0  0.8125  0.18749999999999997  0.9375000000000001  1.0000
  Mn  Mn3955    1.0  0.8125  0.3125  0.9375000000000001  1.0000
  Mn  Mn3956    1.0  0.8125  0.4374999999999999  0.9375000000000001  1.0000
  Mn  Mn3957    1.0  0.8125  0.4999999999999999  0.9375000000000001  1.0000
  Mn  Mn3958    1.0  0.8125  0.625  0.9375000000000001  1.0000
  Mn  Mn3959    1.0  0.8125  0.7499999999999999  0.9375000000000001  1.0000
  Mn  Mn3960    1.0  0.8125  0.8749999999999998  0.9375000000000001  1.0000
  Mn  Mn3961    1.0  0.8437500000000002  0.53125  0.9062500000000001  1.0000
  Mn  Mn3962    1.0  0.8437500000000002  0.59375  0.9062500000000001  1.0000
  Mn  Mn3963    1.0  0.8437500000000002  0.65625  0.9062500000000001  1.0000
  Mn  Mn3964    1.0  0.8437500000000002  0.7187499999999999  0.9062500000000001  1.0000
  Mn  Mn3965    1.0  0.8437500000000002  0.7812499999999999  0.9062500000000001  1.0000
  Mn  Mn3966    1.0  0.8437500000000002  0.8437499999999998  0.9062500000000001  1.0000
  Mn  Mn3967    1.0  0.8437500000000002  0.9062499999999998  0.9062500000000001  1.0000
  Mn  Mn3968    1.0  0.8437500000000002  0.9687499999999998  0.9062500000000001  1.0000
  Mn  Mn3969    1.0  0.875  0.0  0.875  1.0000
  Mn  Mn3970    1.0  0.875  0.12499999999999997  0.875  1.0000
  Mn  Mn3971    1.0  0.875  0.24999999999999994  0.875  1.0000
  Mn  Mn3972    1.0  0.875  0.37499999999999994  0.875  1.0000
  Mn  Mn3973    1.0  0.875  0.5625  0.875  1.0000
  Mn  Mn3974    1.0  0.875  0.6875  0.875  1.0000
  Mn  Mn3975    1.0  0.875  0.8124999999999998  0.875  1.0000
  Mn  Mn3976    1.0  0.875  0.9374999999999998  0.875  1.0000
  Mn  Mn3977    1.0  0.9062500000000002  0.53125  0.84375  1.0000
  Mn  Mn3978    1.0  0.9062500000000002  0.59375  0.84375  1.0000
  Mn  Mn3979    1.0  0.9062500000000002  0.65625  0.84375  1.0000
  Mn  Mn3980    1.0  0.9062500000000002  0.7187499999999999  0.84375  1.0000
  Mn  Mn3981    1.0  0.9062500000000002  0.7812499999999999  0.84375  1.0000
  Mn  Mn3982    1.0  0.9062500000000002  0.8437499999999998  0.84375  1.0000
  Mn  Mn3983    1.0  0.9062500000000002  0.9062499999999998  0.84375  1.0000
  Mn  Mn3984    1.0  0.9062500000000002  0.9687499999999998  0.84375  1.0000
  Mn  Mn3985    1.0  0.9375  0.062499999999999986  0.8125  1.0000
  Mn  Mn3986    1.0  0.9375  0.18749999999999997  0.8125  1.0000
  Mn  Mn3987    1.0  0.9375  0.3125  0.8125  1.0000
  Mn  Mn3988    1.0  0.9375  0.4374999999999999  0.8125  1.0000
  Mn  Mn3989    1.0  0.9375  0.4999999999999999  0.8125  1.0000
  Mn  Mn3990    1.0  0.9375  0.625  0.8125  1.0000
  Mn  Mn3991    1.0  0.9375  0.7499999999999999  0.8125  1.0000
  Mn  Mn3992    1.0  0.9375  0.8749999999999998  0.8125  1.0000
  Mn  Mn3993    1.0  0.9687500000000002  0.53125  0.78125  1.0000
  Mn  Mn3994    1.0  0.9687500000000002  0.59375  0.78125  1.0000
  Mn  Mn3995    1.0  0.9687500000000002  0.65625  0.78125  1.0000
  Mn  Mn3996    1.0  0.9687500000000002  0.7187499999999999  0.78125  1.0000
  Mn  Mn3997    1.0  0.9687500000000002  0.7812499999999999  0.78125  1.0000
  Mn  Mn3998    1.0  0.9687500000000002  0.8437499999999998  0.78125  1.0000
  Mn  Mn3999    1.0  0.9687500000000002  0.9062499999999998  0.78125  1.0000
  Mn  Mn4000    1.0  0.9687500000000002  0.9687499999999998  0.78125  1.0000
  Mn  Mn4001    1.0  0.8125  0.062499999999999986  0.0  1.0000
  Mn  Mn4002    1.0  0.8125  0.18749999999999997  0.0  1.0000
  Mn  Mn4003    1.0  0.8125  0.3125  0.0  1.0000
  Mn  Mn4004    1.0  0.8125  0.4374999999999999  0.0  1.0000
  Mn  Mn4005    1.0  0.8125  0.4999999999999999  0.0  1.0000
  Mn  Mn4006    1.0  0.8125  0.625  0.0  1.0000
  Mn  Mn4007    1.0  0.8125  0.7499999999999999  0.0  1.0000
  Mn  Mn4008    1.0  0.8125  0.8749999999999998  0.0  1.0000
  Mn  Mn4009    1.0  0.8437500000000002  0.031249999999999993  0.9687500000000001  1.0000
  Mn  Mn4010    1.0  0.8437500000000002  0.09374999999999999  0.9687500000000001  1.0000
  Mn  Mn4011    1.0  0.8437500000000002  0.15625  0.9687500000000001  1.0000
  Mn  Mn4012    1.0  0.8437500000000002  0.21874999999999994  0.9687500000000001  1.0000
  Mn  Mn4013    1.0  0.8437500000000002  0.28125  0.9687500000000001  1.0000
  Mn  Mn4014    1.0  0.8437500000000002  0.34375  0.9687500000000001  1.0000
  Mn  Mn4015    1.0  0.8437500000000002  0.4062499999999999  0.9687500000000001  1.0000
  Mn  Mn4016    1.0  0.8437500000000002  0.4687499999999999  0.9687500000000001  1.0000
  Mn  Mn4017    1.0  0.875  0.0  0.9375000000000001  1.0000
  Mn  Mn4018    1.0  0.875  0.12499999999999997  0.9375000000000001  1.0000
  Mn  Mn4019    1.0  0.875  0.24999999999999994  0.9375000000000001  1.0000
  Mn  Mn4020    1.0  0.875  0.37499999999999994  0.9375000000000001  1.0000
  Mn  Mn4021    1.0  0.875  0.5625  0.9375000000000001  1.0000
  Mn  Mn4022    1.0  0.875  0.6875  0.9375000000000001  1.0000
  Mn  Mn4023    1.0  0.875  0.8124999999999998  0.9375000000000001  1.0000
  Mn  Mn4024    1.0  0.875  0.9374999999999998  0.9375000000000001  1.0000
  Mn  Mn4025    1.0  0.9062500000000002  0.031249999999999993  0.9062500000000001  1.0000
  Mn  Mn4026    1.0  0.9062500000000002  0.09374999999999999  0.9062500000000001  1.0000
  Mn  Mn4027    1.0  0.9062500000000002  0.15625  0.9062500000000001  1.0000
  Mn  Mn4028    1.0  0.9062500000000002  0.21874999999999994  0.9062500000000001  1.0000
  Mn  Mn4029    1.0  0.9062500000000002  0.28125  0.9062500000000001  1.0000
  Mn  Mn4030    1.0  0.9062500000000002  0.34375  0.9062500000000001  1.0000
  Mn  Mn4031    1.0  0.9062500000000002  0.4062499999999999  0.9062500000000001  1.0000
  Mn  Mn4032    1.0  0.9062500000000002  0.4687499999999999  0.9062500000000001  1.0000
  Mn  Mn4033    1.0  0.9375  0.062499999999999986  0.875  1.0000
  Mn  Mn4034    1.0  0.9375  0.18749999999999997  0.875  1.0000
  Mn  Mn4035    1.0  0.9375  0.3125  0.875  1.0000
  Mn  Mn4036    1.0  0.9375  0.4374999999999999  0.875  1.0000
  Mn  Mn4037    1.0  0.9375  0.4999999999999999  0.875  1.0000
  Mn  Mn4038    1.0  0.9375  0.625  0.875  1.0000
  Mn  Mn4039    1.0  0.9375  0.7499999999999999  0.875  1.0000
  Mn  Mn4040    1.0  0.9375  0.8749999999999998  0.875  1.0000
  Mn  Mn4041    1.0  0.9687500000000002  0.031249999999999993  0.84375  1.0000
  Mn  Mn4042    1.0  0.9687500000000002  0.09374999999999999  0.84375  1.0000
  Mn  Mn4043    1.0  0.9687500000000002  0.15625  0.84375  1.0000
  Mn  Mn4044    1.0  0.9687500000000002  0.21874999999999994  0.84375  1.0000
  Mn  Mn4045    1.0  0.9687500000000002  0.28125  0.84375  1.0000
  Mn  Mn4046    1.0  0.9687500000000002  0.34375  0.84375  1.0000
  Mn  Mn4047    1.0  0.9687500000000002  0.4062499999999999  0.84375  1.0000
  Mn  Mn4048    1.0  0.9687500000000002  0.4687499999999999  0.84375  1.0000
  Mn  Mn4049    1.0  0.875  0.0  0.0  1.0000
  Mn  Mn4050    1.0  0.875  0.12499999999999997  0.0  1.0000
  Mn  Mn4051    1.0  0.875  0.24999999999999994  0.0  1.0000
  Mn  Mn4052    1.0  0.875  0.37499999999999994  0.0  1.0000
  Mn  Mn4053    1.0  0.875  0.5625  0.0  1.0000
  Mn  Mn4054    1.0  0.875  0.6875  0.0  1.0000
  Mn  Mn4055    1.0  0.875  0.8124999999999998  0.0  1.0000
  Mn  Mn4056    1.0  0.875  0.9374999999999998  0.0  1.0000
  Mn  Mn4057    1.0  0.9062500000000002  0.53125  0.9687500000000001  1.0000
  Mn  Mn4058    1.0  0.9062500000000002  0.59375  0.9687500000000001  1.0000
  Mn  Mn4059    1.0  0.9062500000000002  0.65625  0.9687500000000001  1.0000
  Mn  Mn4060    1.0  0.9062500000000002  0.7187499999999999  0.9687500000000001  1.0000
  Mn  Mn4061    1.0  0.9062500000000002  0.7812499999999999  0.9687500000000001  1.0000
  Mn  Mn4062    1.0  0.9062500000000002  0.8437499999999998  0.9687500000000001  1.0000
  Mn  Mn4063    1.0  0.9062500000000002  0.9062499999999998  0.9687500000000001  1.0000
  Mn  Mn4064    1.0  0.9062500000000002  0.9687499999999998  0.9687500000000001  1.0000
  Mn  Mn4065    1.0  0.9375  0.062499999999999986  0.9375000000000001  1.0000
  Mn  Mn4066    1.0  0.9375  0.18749999999999997  0.9375000000000001  1.0000
  Mn  Mn4067    1.0  0.9375  0.3125  0.9375000000000001  1.0000
  Mn  Mn4068    1.0  0.9375  0.4374999999999999  0.9375000000000001  1.0000
  Mn  Mn4069    1.0  0.9375  0.4999999999999999  0.9375000000000001  1.0000
  Mn  Mn4070    1.0  0.9375  0.625  0.9375000000000001  1.0000
  Mn  Mn4071    1.0  0.9375  0.7499999999999999  0.9375000000000001  1.0000
  Mn  Mn4072    1.0  0.9375  0.8749999999999998  0.9375000000000001  1.0000
  Mn  Mn4073    1.0  0.9687500000000002  0.53125  0.9062500000000001  1.0000
  Mn  Mn4074    1.0  0.9687500000000002  0.59375  0.9062500000000001  1.0000
  Mn  Mn4075    1.0  0.9687500000000002  0.65625  0.9062500000000001  1.0000
  Mn  Mn4076    1.0  0.9687500000000002  0.7187499999999999  0.9062500000000001  1.0000
  Mn  Mn4077    1.0  0.9687500000000002  0.7812499999999999  0.9062500000000001  1.0000
  Mn  Mn4078    1.0  0.9687500000000002  0.8437499999999998  0.9062500000000001  1.0000
  Mn  Mn4079    1.0  0.9687500000000002  0.9062499999999998  0.9062500000000001  1.0000
  Mn  Mn4080    1.0  0.9687500000000002  0.9687499999999998  0.9062500000000001  1.0000
  Mn  Mn4081    1.0  0.9375  0.062499999999999986  0.0  1.0000
  Mn  Mn4082    1.0  0.9375  0.18749999999999997  0.0  1.0000
  Mn  Mn4083    1.0  0.9375  0.3125  0.0  1.0000
  Mn  Mn4084    1.0  0.9375  0.4374999999999999  0.0  1.0000
  Mn  Mn4085    1.0  0.9375  0.4999999999999999  0.0  1.0000
  Mn  Mn4086    1.0  0.9375  0.625  0.0  1.0000
  Mn  Mn4087    1.0  0.9375  0.7499999999999999  0.0  1.0000
  Mn  Mn4088    1.0  0.9375  0.8749999999999998  0.0  1.0000
  Mn  Mn4089    1.0  0.9687500000000002  0.031249999999999993  0.9687500000000001  1.0000
  Mn  Mn4090    1.0  0.9687500000000002  0.09374999999999999  0.9687500000000001  1.0000
  Mn  Mn4091    1.0  0.9687500000000002  0.15625  0.9687500000000001  1.0000
  Mn  Mn4092    1.0  0.9687500000000002  0.21874999999999994  0.9687500000000001  1.0000
  Mn  Mn4093    1.0  0.9687500000000002  0.28125  0.9687500000000001  1.0000
  Mn  Mn4094    1.0  0.9687500000000002  0.34375  0.9687500000000001  1.0000
  Mn  Mn4095    1.0  0.9687500000000002  0.4062499999999999  0.9687500000000001  1.0000
  Mn  Mn4096    1.0  0.9687500000000002  0.4687499999999999  0.9687500000000001  1.0000
  O   O1        1.0  0.03125  0.062499999999999986  0.06250000000000017  1.0000
  O   O2        1.0  0.03125  0.12499999999999997  0.06250000000000017  1.0000
  O   O3        1.0  0.03125  0.18749999999999997  0.06250000000000017  1.0000
  O   O4        1.0  0.03125  0.24999999999999994  0.06250000000000017  1.0000
  O   O5        1.0  0.03125  0.3125  0.06250000000000017  1.0000
  O   O6        1.0  0.03125  0.37499999999999994  0.06250000000000017  1.0000
  O   O7        1.0  0.03125  0.4374999999999999  0.06250000000000017  1.0000
  O   O8        1.0  0.03125  0.49999999999999983  0.06250000000000017  1.0000
  O   O9        1.0  0.03125  0.5624999999999998  0.06250000000000017  1.0000
  O   O10       1.0  0.03125  0.6249999999999998  0.06250000000000017  1.0000
  O   O11       1.0  0.03125  0.6874999999999998  0.06250000000000017  1.0000
  O   O12       1.0  0.03125  0.7499999999999999  0.06250000000000017  1.0000
  O   O13       1.0  0.03125  0.8124999999999998  0.06250000000000017  1.0000
  O   O14       1.0  0.03125  0.8749999999999998  0.06250000000000017  1.0000
  O   O15       1.0  0.03125  0.9374999999999998  0.06250000000000017  1.0000
  O   O16       1.0  0.03125  0.9999999999999999  0.06250000000000017  1.0000
  O   O17       1.0  0.0625  0.09374999999999999  0.03125000000000017  1.0000
  O   O18       1.0  0.0625  0.15625  0.03125000000000017  1.0000
  O   O19       1.0  0.0625  0.21874999999999994  0.03125000000000017  1.0000
  O   O20       1.0  0.0625  0.2812499999999999  0.03125000000000017  1.0000
  O   O21       1.0  0.0625  0.3437499999999999  0.03125000000000017  1.0000
  O   O22       1.0  0.0625  0.4062499999999999  0.03125000000000017  1.0000
  O   O23       1.0  0.0625  0.4687499999999999  0.03125000000000017  1.0000
  O   O24       1.0  0.0625  0.5312499999999999  0.03125000000000017  1.0000
  O   O25       1.0  0.0625  0.59375  0.03125000000000017  1.0000
  O   O26       1.0  0.0625  0.65625  0.03125000000000017  1.0000
  O   O27       1.0  0.0625  0.7187499999999999  0.03125000000000017  1.0000
  O   O28       1.0  0.0625  0.7812499999999999  0.03125000000000017  1.0000
  O   O29       1.0  0.0625  0.8437499999999998  0.03125000000000017  1.0000
  O   O30       1.0  0.0625  0.9062499999999998  0.03125000000000017  1.0000
  O   O31       1.0  0.0625  0.9687499999999998  0.03125000000000017  1.0000
  O   O32       1.0  0.0625  0.031249999999999993  0.03125000000000017  1.0000
  O   O33       1.0  0.03125  0.062499999999999986  0.12500000000000006  1.0000
  O   O34       1.0  0.03125  0.12499999999999997  0.12500000000000006  1.0000
  O   O35       1.0  0.03125  0.18749999999999997  0.12500000000000006  1.0000
  O   O36       1.0  0.03125  0.24999999999999994  0.12500000000000006  1.0000
  O   O37       1.0  0.03125  0.3125  0.12500000000000006  1.0000
  O   O38       1.0  0.03125  0.37499999999999994  0.12500000000000006  1.0000
  O   O39       1.0  0.03125  0.4374999999999999  0.12500000000000006  1.0000
  O   O40       1.0  0.03125  0.49999999999999983  0.12500000000000006  1.0000
  O   O41       1.0  0.03125  0.5624999999999998  0.12500000000000006  1.0000
  O   O42       1.0  0.03125  0.6249999999999998  0.12500000000000006  1.0000
  O   O43       1.0  0.03125  0.6874999999999998  0.12500000000000006  1.0000
  O   O44       1.0  0.03125  0.7499999999999999  0.12500000000000006  1.0000
  O   O45       1.0  0.03125  0.8124999999999998  0.12500000000000006  1.0000
  O   O46       1.0  0.03125  0.8749999999999998  0.12500000000000006  1.0000
  O   O47       1.0  0.03125  0.9374999999999998  0.12500000000000006  1.0000
  O   O48       1.0  0.03125  0.9999999999999999  0.12500000000000006  1.0000
  O   O49       1.0  0.0625  0.09374999999999999  0.09375000000000015  1.0000
  O   O50       1.0  0.0625  0.15625  0.09375000000000015  1.0000
  O   O51       1.0  0.0625  0.21874999999999994  0.09375000000000015  1.0000
  O   O52       1.0  0.0625  0.2812499999999999  0.09375000000000015  1.0000
  O   O53       1.0  0.0625  0.3437499999999999  0.09375000000000015  1.0000
  O   O54       1.0  0.0625  0.4062499999999999  0.09375000000000015  1.0000
  O   O55       1.0  0.0625  0.4687499999999999  0.09375000000000015  1.0000
  O   O56       1.0  0.0625  0.5312499999999999  0.09375000000000015  1.0000
  O   O57       1.0  0.0625  0.59375  0.09375000000000015  1.0000
  O   O58       1.0  0.0625  0.65625  0.09375000000000015  1.0000
  O   O59       1.0  0.0625  0.7187499999999999  0.09375000000000015  1.0000
  O   O60       1.0  0.0625  0.7812499999999999  0.09375000000000015  1.0000
  O   O61       1.0  0.0625  0.8437499999999998  0.09375000000000015  1.0000
  O   O62       1.0  0.0625  0.9062499999999998  0.09375000000000015  1.0000
  O   O63       1.0  0.0625  0.9687499999999998  0.09375000000000015  1.0000
  O   O64       1.0  0.0625  0.031249999999999993  0.09375000000000015  1.0000
  O   O65       1.0  0.09375  0.062499999999999986  0.06250000000000017  1.0000
  O   O66       1.0  0.09375  0.12499999999999997  0.06250000000000017  1.0000
  O   O67       1.0  0.09375  0.18749999999999997  0.06250000000000017  1.0000
  O   O68       1.0  0.09375  0.24999999999999994  0.06250000000000017  1.0000
  O   O69       1.0  0.09375  0.3125  0.06250000000000017  1.0000
  O   O70       1.0  0.09375  0.37499999999999994  0.06250000000000017  1.0000
  O   O71       1.0  0.09375  0.4374999999999999  0.06250000000000017  1.0000
  O   O72       1.0  0.09375  0.49999999999999983  0.06250000000000017  1.0000
  O   O73       1.0  0.09375  0.5624999999999998  0.06250000000000017  1.0000
  O   O74       1.0  0.09375  0.6249999999999998  0.06250000000000017  1.0000
  O   O75       1.0  0.09375  0.6874999999999998  0.06250000000000017  1.0000
  O   O76       1.0  0.09375  0.7499999999999999  0.06250000000000017  1.0000
  O   O77       1.0  0.09375  0.8124999999999998  0.06250000000000017  1.0000
  O   O78       1.0  0.09375  0.8749999999999998  0.06250000000000017  1.0000
  O   O79       1.0  0.09375  0.9374999999999998  0.06250000000000017  1.0000
  O   O80       1.0  0.09375  0.9999999999999999  0.06250000000000017  1.0000
  O   O81       1.0  0.1249999999999999  0.09374999999999999  0.03125000000000017  1.0000
  O   O82       1.0  0.1249999999999999  0.15625  0.03125000000000017  1.0000
  O   O83       1.0  0.1249999999999999  0.21874999999999994  0.03125000000000017  1.0000
  O   O84       1.0  0.1249999999999999  0.2812499999999999  0.03125000000000017  1.0000
  O   O85       1.0  0.1249999999999999  0.3437499999999999  0.03125000000000017  1.0000
  O   O86       1.0  0.1249999999999999  0.4062499999999999  0.03125000000000017  1.0000
  O   O87       1.0  0.1249999999999999  0.4687499999999999  0.03125000000000017  1.0000
  O   O88       1.0  0.1249999999999999  0.53125  0.03125000000000017  1.0000
  O   O89       1.0  0.1249999999999999  0.59375  0.03125000000000017  1.0000
  O   O90       1.0  0.1249999999999999  0.6562499999999998  0.03125000000000017  1.0000
  O   O91       1.0  0.1249999999999999  0.7187499999999999  0.03125000000000017  1.0000
  O   O92       1.0  0.1249999999999999  0.7812500000000001  0.03125000000000017  1.0000
  O   O93       1.0  0.1249999999999999  0.8437499999999998  0.03125000000000017  1.0000
  O   O94       1.0  0.1249999999999999  0.9062499999999998  0.03125000000000017  1.0000
  O   O95       1.0  0.1249999999999999  0.9687499999999998  0.03125000000000017  1.0000
  O   O96       1.0  0.1249999999999999  0.031249999999999993  0.03125000000000017  1.0000
  O   O97       1.0  0.0312499999999999  0.062499999999999986  0.18750000000000006  1.0000
  O   O98       1.0  0.0312499999999999  0.12499999999999997  0.18750000000000006  1.0000
  O   O99       1.0  0.0312499999999999  0.18749999999999997  0.18750000000000006  1.0000
  O   O100      1.0  0.0312499999999999  0.24999999999999994  0.18750000000000006  1.0000
  O   O101      1.0  0.0312499999999999  0.3125  0.18750000000000006  1.0000
  O   O102      1.0  0.0312499999999999  0.37499999999999994  0.18750000000000006  1.0000
  O   O103      1.0  0.0312499999999999  0.4374999999999999  0.18750000000000006  1.0000
  O   O104      1.0  0.0312499999999999  0.49999999999999983  0.18750000000000006  1.0000
  O   O105      1.0  0.0312499999999999  0.5624999999999998  0.18750000000000006  1.0000
  O   O106      1.0  0.0312499999999999  0.6249999999999998  0.18750000000000006  1.0000
  O   O107      1.0  0.0312499999999999  0.6874999999999998  0.18750000000000006  1.0000
  O   O108      1.0  0.0312499999999999  0.7499999999999999  0.18750000000000006  1.0000
  O   O109      1.0  0.0312499999999999  0.8124999999999998  0.18750000000000006  1.0000
  O   O110      1.0  0.0312499999999999  0.8749999999999998  0.18750000000000006  1.0000
  O   O111      1.0  0.0312499999999999  0.9374999999999998  0.18750000000000006  1.0000
  O   O112      1.0  0.0312499999999999  0.9999999999999999  0.18750000000000006  1.0000
  O   O113      1.0  0.0625  0.09374999999999999  0.15625000000000003  1.0000
  O   O114      1.0  0.0625  0.15625  0.15625000000000003  1.0000
  O   O115      1.0  0.0625  0.21874999999999994  0.15625000000000003  1.0000
  O   O116      1.0  0.0625  0.2812499999999999  0.15625000000000003  1.0000
  O   O117      1.0  0.0625  0.3437499999999999  0.15625000000000003  1.0000
  O   O118      1.0  0.0625  0.4062499999999999  0.15625000000000003  1.0000
  O   O119      1.0  0.0625  0.4687499999999999  0.15625000000000003  1.0000
  O   O120      1.0  0.0625  0.5312499999999999  0.15625000000000003  1.0000
  O   O121      1.0  0.0625  0.59375  0.15625000000000003  1.0000
  O   O122      1.0  0.0625  0.65625  0.15625000000000003  1.0000
  O   O123      1.0  0.0625  0.7187499999999999  0.15625000000000003  1.0000
  O   O124      1.0  0.0625  0.7812499999999999  0.15625000000000003  1.0000
  O   O125      1.0  0.0625  0.8437499999999998  0.15625000000000003  1.0000
  O   O126      1.0  0.0625  0.9062499999999998  0.15625000000000003  1.0000
  O   O127      1.0  0.0625  0.9687499999999998  0.15625000000000003  1.0000
  O   O128      1.0  0.0625  0.031249999999999993  0.15625000000000003  1.0000
  O   O129      1.0  0.0937499999999999  0.062499999999999986  0.12500000000000006  1.0000
  O   O130      1.0  0.0937499999999999  0.12499999999999997  0.12500000000000006  1.0000
  O   O131      1.0  0.0937499999999999  0.18749999999999997  0.12500000000000006  1.0000
  O   O132      1.0  0.0937499999999999  0.24999999999999994  0.12500000000000006  1.0000
  O   O133      1.0  0.0937499999999999  0.3125  0.12500000000000006  1.0000
  O   O134      1.0  0.0937499999999999  0.37499999999999994  0.12500000000000006  1.0000
  O   O135      1.0  0.0937499999999999  0.4374999999999999  0.12500000000000006  1.0000
  O   O136      1.0  0.0937499999999999  0.49999999999999983  0.12500000000000006  1.0000
  O   O137      1.0  0.0937499999999999  0.5624999999999998  0.12500000000000006  1.0000
  O   O138      1.0  0.0937499999999999  0.6249999999999998  0.12500000000000006  1.0000
  O   O139      1.0  0.0937499999999999  0.6874999999999998  0.12500000000000006  1.0000
  O   O140      1.0  0.0937499999999999  0.7499999999999999  0.12500000000000006  1.0000
  O   O141      1.0  0.0937499999999999  0.8124999999999998  0.12500000000000006  1.0000
  O   O142      1.0  0.0937499999999999  0.8749999999999998  0.12500000000000006  1.0000
  O   O143      1.0  0.0937499999999999  0.9374999999999998  0.12500000000000006  1.0000
  O   O144      1.0  0.0937499999999999  0.9999999999999999  0.12500000000000006  1.0000
  O   O145      1.0  0.1249999999999999  0.09374999999999999  0.09375000000000015  1.0000
  O   O146      1.0  0.1249999999999999  0.15625  0.09375000000000015  1.0000
  O   O147      1.0  0.1249999999999999  0.21874999999999994  0.09375000000000015  1.0000
  O   O148      1.0  0.1249999999999999  0.2812499999999999  0.09375000000000015  1.0000
  O   O149      1.0  0.1249999999999999  0.3437499999999999  0.09375000000000015  1.0000
  O   O150      1.0  0.1249999999999999  0.4062499999999999  0.09375000000000015  1.0000
  O   O151      1.0  0.1249999999999999  0.4687499999999999  0.09375000000000015  1.0000
  O   O152      1.0  0.1249999999999999  0.53125  0.09375000000000015  1.0000
  O   O153      1.0  0.1249999999999999  0.59375  0.09375000000000015  1.0000
  O   O154      1.0  0.1249999999999999  0.6562499999999998  0.09375000000000015  1.0000
  O   O155      1.0  0.1249999999999999  0.7187499999999999  0.09375000000000015  1.0000
  O   O156      1.0  0.1249999999999999  0.7812500000000001  0.09375000000000015  1.0000
  O   O157      1.0  0.1249999999999999  0.8437499999999998  0.09375000000000015  1.0000
  O   O158      1.0  0.1249999999999999  0.9062499999999998  0.09375000000000015  1.0000
  O   O159      1.0  0.1249999999999999  0.9687499999999998  0.09375000000000015  1.0000
  O   O160      1.0  0.1249999999999999  0.031249999999999993  0.09375000000000015  1.0000
  O   O161      1.0  0.15624999999999994  0.062499999999999986  0.06250000000000017  1.0000
  O   O162      1.0  0.15624999999999994  0.12499999999999997  0.06250000000000017  1.0000
  O   O163      1.0  0.15624999999999994  0.18749999999999997  0.06250000000000017  1.0000
  O   O164      1.0  0.15624999999999994  0.24999999999999994  0.06250000000000017  1.0000
  O   O165      1.0  0.15624999999999994  0.3125  0.06250000000000017  1.0000
  O   O166      1.0  0.15624999999999994  0.3749999999999999  0.06250000000000017  1.0000
  O   O167      1.0  0.15624999999999994  0.4374999999999999  0.06250000000000017  1.0000
  O   O168      1.0  0.15624999999999994  0.49999999999999983  0.06250000000000017  1.0000
  O   O169      1.0  0.15624999999999994  0.5624999999999998  0.06250000000000017  1.0000
  O   O170      1.0  0.15624999999999994  0.6249999999999998  0.06250000000000017  1.0000
  O   O171      1.0  0.15624999999999994  0.6875  0.06250000000000017  1.0000
  O   O172      1.0  0.15624999999999994  0.7499999999999999  0.06250000000000017  1.0000
  O   O173      1.0  0.15624999999999994  0.8124999999999998  0.06250000000000017  1.0000
  O   O174      1.0  0.15624999999999994  0.8749999999999998  0.06250000000000017  1.0000
  O   O175      1.0  0.15624999999999994  0.9374999999999998  0.06250000000000017  1.0000
  O   O176      1.0  0.15624999999999994  0.0  0.06250000000000017  1.0000
  O   O177      1.0  0.1874999999999999  0.09374999999999999  0.03125000000000017  1.0000
  O   O178      1.0  0.1874999999999999  0.15625  0.03125000000000017  1.0000
  O   O179      1.0  0.1874999999999999  0.21874999999999994  0.03125000000000017  1.0000
  O   O180      1.0  0.1874999999999999  0.2812499999999999  0.03125000000000017  1.0000
  O   O181      1.0  0.1874999999999999  0.34375  0.03125000000000017  1.0000
  O   O182      1.0  0.1874999999999999  0.4062499999999999  0.03125000000000017  1.0000
  O   O183      1.0  0.1874999999999999  0.4687499999999999  0.03125000000000017  1.0000
  O   O184      1.0  0.1874999999999999  0.53125  0.03125000000000017  1.0000
  O   O185      1.0  0.1874999999999999  0.59375  0.03125000000000017  1.0000
  O   O186      1.0  0.1874999999999999  0.6562499999999998  0.03125000000000017  1.0000
  O   O187      1.0  0.1874999999999999  0.7187499999999999  0.03125000000000017  1.0000
  O   O188      1.0  0.1874999999999999  0.7812499999999999  0.03125000000000017  1.0000
  O   O189      1.0  0.1874999999999999  0.8437499999999998  0.03125000000000017  1.0000
  O   O190      1.0  0.1874999999999999  0.9062499999999998  0.03125000000000017  1.0000
  O   O191      1.0  0.1874999999999999  0.9687499999999998  0.03125000000000017  1.0000
  O   O192      1.0  0.1874999999999999  0.031249999999999993  0.03125000000000017  1.0000
  O   O193      1.0  0.0312499999999999  0.062499999999999986  0.25  1.0000
  O   O194      1.0  0.0312499999999999  0.12499999999999997  0.25  1.0000
  O   O195      1.0  0.0312499999999999  0.18749999999999997  0.25  1.0000
  O   O196      1.0  0.0312499999999999  0.24999999999999994  0.25  1.0000
  O   O197      1.0  0.0312499999999999  0.3125  0.25  1.0000
  O   O198      1.0  0.0312499999999999  0.37499999999999994  0.25  1.0000
  O   O199      1.0  0.0312499999999999  0.4374999999999999  0.25  1.0000
  O   O200      1.0  0.0312499999999999  0.49999999999999983  0.25  1.0000
  O   O201      1.0  0.0312499999999999  0.5624999999999998  0.25  1.0000
  O   O202      1.0  0.0312499999999999  0.6249999999999998  0.25  1.0000
  O   O203      1.0  0.0312499999999999  0.6874999999999998  0.25  1.0000
  O   O204      1.0  0.0312499999999999  0.7499999999999999  0.25  1.0000
  O   O205      1.0  0.0312499999999999  0.8124999999999998  0.25  1.0000
  O   O206      1.0  0.0312499999999999  0.8749999999999998  0.25  1.0000
  O   O207      1.0  0.0312499999999999  0.9374999999999998  0.25  1.0000
  O   O208      1.0  0.0312499999999999  0.9999999999999999  0.25  1.0000
  O   O209      1.0  0.06249999999999991  0.09374999999999999  0.21875000000000006  1.0000
  O   O210      1.0  0.06249999999999991  0.15625  0.21875000000000006  1.0000
  O   O211      1.0  0.06249999999999991  0.21874999999999994  0.21875000000000006  1.0000
  O   O212      1.0  0.06249999999999991  0.2812499999999999  0.21875000000000006  1.0000
  O   O213      1.0  0.06249999999999991  0.3437499999999999  0.21875000000000006  1.0000
  O   O214      1.0  0.06249999999999991  0.4062499999999999  0.21875000000000006  1.0000
  O   O215      1.0  0.06249999999999991  0.4687499999999999  0.21875000000000006  1.0000
  O   O216      1.0  0.06249999999999991  0.5312499999999999  0.21875000000000006  1.0000
  O   O217      1.0  0.06249999999999991  0.59375  0.21875000000000006  1.0000
  O   O218      1.0  0.06249999999999991  0.65625  0.21875000000000006  1.0000
  O   O219      1.0  0.06249999999999991  0.7187499999999999  0.21875000000000006  1.0000
  O   O220      1.0  0.06249999999999991  0.7812499999999999  0.21875000000000006  1.0000
  O   O221      1.0  0.06249999999999991  0.8437499999999998  0.21875000000000006  1.0000
  O   O222      1.0  0.06249999999999991  0.9062499999999998  0.21875000000000006  1.0000
  O   O223      1.0  0.06249999999999991  0.9687499999999998  0.21875000000000006  1.0000
  O   O224      1.0  0.06249999999999991  0.031249999999999993  0.21875000000000006  1.0000
  O   O225      1.0  0.09375  0.062499999999999986  0.18750000000000006  1.0000
  O   O226      1.0  0.09375  0.12499999999999997  0.18750000000000006  1.0000
  O   O227      1.0  0.09375  0.18749999999999997  0.18750000000000006  1.0000
  O   O228      1.0  0.09375  0.24999999999999994  0.18750000000000006  1.0000
  O   O229      1.0  0.09375  0.3125  0.18750000000000006  1.0000
  O   O230      1.0  0.09375  0.37499999999999994  0.18750000000000006  1.0000
  O   O231      1.0  0.09375  0.4374999999999999  0.18750000000000006  1.0000
  O   O232      1.0  0.09375  0.49999999999999983  0.18750000000000006  1.0000
  O   O233      1.0  0.09375  0.5624999999999998  0.18750000000000006  1.0000
  O   O234      1.0  0.09375  0.6249999999999998  0.18750000000000006  1.0000
  O   O235      1.0  0.09375  0.6874999999999998  0.18750000000000006  1.0000
  O   O236      1.0  0.09375  0.7499999999999999  0.18750000000000006  1.0000
  O   O237      1.0  0.09375  0.8124999999999998  0.18750000000000006  1.0000
  O   O238      1.0  0.09375  0.8749999999999998  0.18750000000000006  1.0000
  O   O239      1.0  0.09375  0.9374999999999998  0.18750000000000006  1.0000
  O   O240      1.0  0.09375  0.9999999999999999  0.18750000000000006  1.0000
  O   O241      1.0  0.125  0.09374999999999999  0.15625000000000003  1.0000
  O   O242      1.0  0.125  0.15625  0.15625000000000003  1.0000
  O   O243      1.0  0.125  0.21874999999999994  0.15625000000000003  1.0000
  O   O244      1.0  0.125  0.2812499999999999  0.15625000000000003  1.0000
  O   O245      1.0  0.125  0.3437499999999999  0.15625000000000003  1.0000
  O   O246      1.0  0.125  0.4062499999999999  0.15625000000000003  1.0000
  O   O247      1.0  0.125  0.4687499999999999  0.15625000000000003  1.0000
  O   O248      1.0  0.125  0.53125  0.15625000000000003  1.0000
  O   O249      1.0  0.125  0.59375  0.15625000000000003  1.0000
  O   O250      1.0  0.125  0.6562499999999998  0.15625000000000003  1.0000
  O   O251      1.0  0.125  0.7187499999999999  0.15625000000000003  1.0000
  O   O252      1.0  0.125  0.7812500000000001  0.15625000000000003  1.0000
  O   O253      1.0  0.125  0.8437499999999998  0.15625000000000003  1.0000
  O   O254      1.0  0.125  0.9062499999999998  0.15625000000000003  1.0000
  O   O255      1.0  0.125  0.9687499999999998  0.15625000000000003  1.0000
  O   O256      1.0  0.125  0.031249999999999993  0.15625000000000003  1.0000
  O   O257      1.0  0.15624999999999994  0.062499999999999986  0.12500000000000006  1.0000
  O   O258      1.0  0.15624999999999994  0.12499999999999997  0.12500000000000006  1.0000
  O   O259      1.0  0.15624999999999994  0.18749999999999997  0.12500000000000006  1.0000
  O   O260      1.0  0.15624999999999994  0.24999999999999994  0.12500000000000006  1.0000
  O   O261      1.0  0.15624999999999994  0.3125  0.12500000000000006  1.0000
  O   O262      1.0  0.15624999999999994  0.3749999999999999  0.12500000000000006  1.0000
  O   O263      1.0  0.15624999999999994  0.4374999999999999  0.12500000000000006  1.0000
  O   O264      1.0  0.15624999999999994  0.49999999999999983  0.12500000000000006  1.0000
  O   O265      1.0  0.15624999999999994  0.5624999999999998  0.12500000000000006  1.0000
  O   O266      1.0  0.15624999999999994  0.6249999999999998  0.12500000000000006  1.0000
  O   O267      1.0  0.15624999999999994  0.6875  0.12500000000000006  1.0000
  O   O268      1.0  0.15624999999999994  0.7499999999999999  0.12500000000000006  1.0000
  O   O269      1.0  0.15624999999999994  0.8124999999999998  0.12500000000000006  1.0000
  O   O270      1.0  0.15624999999999994  0.8749999999999998  0.12500000000000006  1.0000
  O   O271      1.0  0.15624999999999994  0.9374999999999998  0.12500000000000006  1.0000
  O   O272      1.0  0.15624999999999994  0.0  0.12500000000000006  1.0000
  O   O273      1.0  0.1874999999999999  0.09374999999999999  0.09375000000000015  1.0000
  O   O274      1.0  0.1874999999999999  0.15625  0.09375000000000015  1.0000
  O   O275      1.0  0.1874999999999999  0.21874999999999994  0.09375000000000015  1.0000
  O   O276      1.0  0.1874999999999999  0.2812499999999999  0.09375000000000015  1.0000
  O   O277      1.0  0.1874999999999999  0.34375  0.09375000000000015  1.0000
  O   O278      1.0  0.1874999999999999  0.4062499999999999  0.09375000000000015  1.0000
  O   O279      1.0  0.1874999999999999  0.4687499999999999  0.09375000000000015  1.0000
  O   O280      1.0  0.1874999999999999  0.53125  0.09375000000000015  1.0000
  O   O281      1.0  0.1874999999999999  0.59375  0.09375000000000015  1.0000
  O   O282      1.0  0.1874999999999999  0.6562499999999998  0.09375000000000015  1.0000
  O   O283      1.0  0.1874999999999999  0.7187499999999999  0.09375000000000015  1.0000
  O   O284      1.0  0.1874999999999999  0.7812499999999999  0.09375000000000015  1.0000
  O   O285      1.0  0.1874999999999999  0.8437499999999998  0.09375000000000015  1.0000
  O   O286      1.0  0.1874999999999999  0.9062499999999998  0.09375000000000015  1.0000
  O   O287      1.0  0.1874999999999999  0.9687499999999998  0.09375000000000015  1.0000
  O   O288      1.0  0.1874999999999999  0.031249999999999993  0.09375000000000015  1.0000
  O   O289      1.0  0.2187499999999999  0.062499999999999986  0.06250000000000017  1.0000
  O   O290      1.0  0.2187499999999999  0.12499999999999997  0.06250000000000017  1.0000
  O   O291      1.0  0.2187499999999999  0.18749999999999997  0.06250000000000017  1.0000
  O   O292      1.0  0.2187499999999999  0.24999999999999994  0.06250000000000017  1.0000
  O   O293      1.0  0.2187499999999999  0.3124999999999999  0.06250000000000017  1.0000
  O   O294      1.0  0.2187499999999999  0.3749999999999999  0.06250000000000017  1.0000
  O   O295      1.0  0.2187499999999999  0.4374999999999999  0.06250000000000017  1.0000
  O   O296      1.0  0.2187499999999999  0.49999999999999983  0.06250000000000017  1.0000
  O   O297      1.0  0.2187499999999999  0.5624999999999998  0.06250000000000017  1.0000
  O   O298      1.0  0.2187499999999999  0.6249999999999998  0.06250000000000017  1.0000
  O   O299      1.0  0.2187499999999999  0.6875  0.06250000000000017  1.0000
  O   O300      1.0  0.2187499999999999  0.7499999999999999  0.06250000000000017  1.0000
  O   O301      1.0  0.2187499999999999  0.8124999999999998  0.06250000000000017  1.0000
  O   O302      1.0  0.2187499999999999  0.8750000000000001  0.06250000000000017  1.0000
  O   O303      1.0  0.2187499999999999  0.9374999999999998  0.06250000000000017  1.0000
  O   O304      1.0  0.2187499999999999  0.0  0.06250000000000017  1.0000
  O   O305      1.0  0.24999999999999992  0.09374999999999999  0.03125000000000017  1.0000
  O   O306      1.0  0.24999999999999992  0.15625  0.03125000000000017  1.0000
  O   O307      1.0  0.24999999999999992  0.21874999999999994  0.03125000000000017  1.0000
  O   O308      1.0  0.24999999999999992  0.28125  0.03125000000000017  1.0000
  O   O309      1.0  0.24999999999999992  0.34375  0.03125000000000017  1.0000
  O   O310      1.0  0.24999999999999992  0.4062499999999999  0.03125000000000017  1.0000
  O   O311      1.0  0.24999999999999992  0.4687499999999999  0.03125000000000017  1.0000
  O   O312      1.0  0.24999999999999992  0.53125  0.03125000000000017  1.0000
  O   O313      1.0  0.24999999999999992  0.5937499999999998  0.03125000000000017  1.0000
  O   O314      1.0  0.24999999999999992  0.6562499999999998  0.03125000000000017  1.0000
  O   O315      1.0  0.24999999999999992  0.7187499999999999  0.03125000000000017  1.0000
  O   O316      1.0  0.24999999999999992  0.7812499999999999  0.03125000000000017  1.0000
  O   O317      1.0  0.24999999999999992  0.8437499999999998  0.03125000000000017  1.0000
  O   O318      1.0  0.24999999999999992  0.9062499999999998  0.03125000000000017  1.0000
  O   O319      1.0  0.24999999999999992  0.9687499999999998  0.03125000000000017  1.0000
  O   O320      1.0  0.24999999999999992  0.031249999999999993  0.03125000000000017  1.0000
  O   O321      1.0  0.03125  0.062499999999999986  0.31250000000000006  1.0000
  O   O322      1.0  0.03125  0.12499999999999997  0.31250000000000006  1.0000
  O   O323      1.0  0.03125  0.18749999999999997  0.31250000000000006  1.0000
  O   O324      1.0  0.03125  0.24999999999999994  0.31250000000000006  1.0000
  O   O325      1.0  0.03125  0.3125  0.31250000000000006  1.0000
  O   O326      1.0  0.03125  0.37499999999999994  0.31250000000000006  1.0000
  O   O327      1.0  0.03125  0.4374999999999999  0.31250000000000006  1.0000
  O   O328      1.0  0.03125  0.49999999999999983  0.31250000000000006  1.0000
  O   O329      1.0  0.03125  0.5624999999999998  0.31250000000000006  1.0000
  O   O330      1.0  0.03125  0.6249999999999998  0.31250000000000006  1.0000
  O   O331      1.0  0.03125  0.6874999999999998  0.31250000000000006  1.0000
  O   O332      1.0  0.03125  0.7499999999999999  0.31250000000000006  1.0000
  O   O333      1.0  0.03125  0.8124999999999998  0.31250000000000006  1.0000
  O   O334      1.0  0.03125  0.8749999999999998  0.31250000000000006  1.0000
  O   O335      1.0  0.03125  0.9374999999999998  0.31250000000000006  1.0000
  O   O336      1.0  0.03125  0.9999999999999999  0.31250000000000006  1.0000
  O   O337      1.0  0.0625  0.09374999999999999  0.28125000000000006  1.0000
  O   O338      1.0  0.0625  0.15625  0.28125000000000006  1.0000
  O   O339      1.0  0.0625  0.21874999999999994  0.28125000000000006  1.0000
  O   O340      1.0  0.0625  0.2812499999999999  0.28125000000000006  1.0000
  O   O341      1.0  0.0625  0.3437499999999999  0.28125000000000006  1.0000
  O   O342      1.0  0.0625  0.4062499999999999  0.28125000000000006  1.0000
  O   O343      1.0  0.0625  0.4687499999999999  0.28125000000000006  1.0000
  O   O344      1.0  0.0625  0.5312499999999999  0.28125000000000006  1.0000
  O   O345      1.0  0.0625  0.59375  0.28125000000000006  1.0000
  O   O346      1.0  0.0625  0.65625  0.28125000000000006  1.0000
  O   O347      1.0  0.0625  0.7187499999999999  0.28125000000000006  1.0000
  O   O348      1.0  0.0625  0.7812499999999999  0.28125000000000006  1.0000
  O   O349      1.0  0.0625  0.8437499999999998  0.28125000000000006  1.0000
  O   O350      1.0  0.0625  0.9062499999999998  0.28125000000000006  1.0000
  O   O351      1.0  0.0625  0.9687499999999998  0.28125000000000006  1.0000
  O   O352      1.0  0.0625  0.031249999999999993  0.28125000000000006  1.0000
  O   O353      1.0  0.0937499999999999  0.062499999999999986  0.25  1.0000
  O   O354      1.0  0.0937499999999999  0.12499999999999997  0.25  1.0000
  O   O355      1.0  0.0937499999999999  0.18749999999999997  0.25  1.0000
  O   O356      1.0  0.0937499999999999  0.24999999999999994  0.25  1.0000
  O   O357      1.0  0.0937499999999999  0.3125  0.25  1.0000
  O   O358      1.0  0.0937499999999999  0.37499999999999994  0.25  1.0000
  O   O359      1.0  0.0937499999999999  0.4374999999999999  0.25  1.0000
  O   O360      1.0  0.0937499999999999  0.49999999999999983  0.25  1.0000
  O   O361      1.0  0.0937499999999999  0.5624999999999998  0.25  1.0000
  O   O362      1.0  0.0937499999999999  0.6249999999999998  0.25  1.0000
  O   O363      1.0  0.0937499999999999  0.6874999999999998  0.25  1.0000
  O   O364      1.0  0.0937499999999999  0.7499999999999999  0.25  1.0000
  O   O365      1.0  0.0937499999999999  0.8124999999999998  0.25  1.0000
  O   O366      1.0  0.0937499999999999  0.8749999999999998  0.25  1.0000
  O   O367      1.0  0.0937499999999999  0.9374999999999998  0.25  1.0000
  O   O368      1.0  0.0937499999999999  0.9999999999999999  0.25  1.0000
  O   O369      1.0  0.125  0.09374999999999999  0.21875000000000006  1.0000
  O   O370      1.0  0.125  0.15625  0.21875000000000006  1.0000
  O   O371      1.0  0.125  0.21874999999999994  0.21875000000000006  1.0000
  O   O372      1.0  0.125  0.2812499999999999  0.21875000000000006  1.0000
  O   O373      1.0  0.125  0.3437499999999999  0.21875000000000006  1.0000
  O   O374      1.0  0.125  0.4062499999999999  0.21875000000000006  1.0000
  O   O375      1.0  0.125  0.4687499999999999  0.21875000000000006  1.0000
  O   O376      1.0  0.125  0.53125  0.21875000000000006  1.0000
  O   O377      1.0  0.125  0.59375  0.21875000000000006  1.0000
  O   O378      1.0  0.125  0.6562499999999998  0.21875000000000006  1.0000
  O   O379      1.0  0.125  0.7187499999999999  0.21875000000000006  1.0000
  O   O380      1.0  0.125  0.7812500000000001  0.21875000000000006  1.0000
  O   O381      1.0  0.125  0.8437499999999998  0.21875000000000006  1.0000
  O   O382      1.0  0.125  0.9062499999999998  0.21875000000000006  1.0000
  O   O383      1.0  0.125  0.9687499999999998  0.21875000000000006  1.0000
  O   O384      1.0  0.125  0.031249999999999993  0.21875000000000006  1.0000
  O   O385      1.0  0.15625000000000006  0.062499999999999986  0.18750000000000006  1.0000
  O   O386      1.0  0.15625000000000006  0.12499999999999997  0.18750000000000006  1.0000
  O   O387      1.0  0.15625000000000006  0.18749999999999997  0.18750000000000006  1.0000
  O   O388      1.0  0.15625000000000006  0.24999999999999994  0.18750000000000006  1.0000
  O   O389      1.0  0.15625000000000006  0.3125  0.18750000000000006  1.0000
  O   O390      1.0  0.15625000000000006  0.3749999999999999  0.18750000000000006  1.0000
  O   O391      1.0  0.15625000000000006  0.4374999999999999  0.18750000000000006  1.0000
  O   O392      1.0  0.15625000000000006  0.49999999999999983  0.18750000000000006  1.0000
  O   O393      1.0  0.15625000000000006  0.5624999999999998  0.18750000000000006  1.0000
  O   O394      1.0  0.15625000000000006  0.6249999999999998  0.18750000000000006  1.0000
  O   O395      1.0  0.15625000000000006  0.6875  0.18750000000000006  1.0000
  O   O396      1.0  0.15625000000000006  0.7499999999999999  0.18750000000000006  1.0000
  O   O397      1.0  0.15625000000000006  0.8124999999999998  0.18750000000000006  1.0000
  O   O398      1.0  0.15625000000000006  0.8749999999999998  0.18750000000000006  1.0000
  O   O399      1.0  0.15625000000000006  0.9374999999999998  0.18750000000000006  1.0000
  O   O400      1.0  0.15625000000000006  0.0  0.18750000000000006  1.0000
  O   O401      1.0  0.1874999999999999  0.09374999999999999  0.15625000000000003  1.0000
  O   O402      1.0  0.1874999999999999  0.15625  0.15625000000000003  1.0000
  O   O403      1.0  0.1874999999999999  0.21874999999999994  0.15625000000000003  1.0000
  O   O404      1.0  0.1874999999999999  0.2812499999999999  0.15625000000000003  1.0000
  O   O405      1.0  0.1874999999999999  0.34375  0.15625000000000003  1.0000
  O   O406      1.0  0.1874999999999999  0.4062499999999999  0.15625000000000003  1.0000
  O   O407      1.0  0.1874999999999999  0.4687499999999999  0.15625000000000003  1.0000
  O   O408      1.0  0.1874999999999999  0.53125  0.15625000000000003  1.0000
  O   O409      1.0  0.1874999999999999  0.59375  0.15625000000000003  1.0000
  O   O410      1.0  0.1874999999999999  0.6562499999999998  0.15625000000000003  1.0000
  O   O411      1.0  0.1874999999999999  0.7187499999999999  0.15625000000000003  1.0000
  O   O412      1.0  0.1874999999999999  0.7812499999999999  0.15625000000000003  1.0000
  O   O413      1.0  0.1874999999999999  0.8437499999999998  0.15625000000000003  1.0000
  O   O414      1.0  0.1874999999999999  0.9062499999999998  0.15625000000000003  1.0000
  O   O415      1.0  0.1874999999999999  0.9687499999999998  0.15625000000000003  1.0000
  O   O416      1.0  0.1874999999999999  0.031249999999999993  0.15625000000000003  1.0000
  O   O417      1.0  0.2187499999999999  0.062499999999999986  0.12500000000000006  1.0000
  O   O418      1.0  0.2187499999999999  0.12499999999999997  0.12500000000000006  1.0000
  O   O419      1.0  0.2187499999999999  0.18749999999999997  0.12500000000000006  1.0000
  O   O420      1.0  0.2187499999999999  0.24999999999999994  0.12500000000000006  1.0000
  O   O421      1.0  0.2187499999999999  0.3124999999999999  0.12500000000000006  1.0000
  O   O422      1.0  0.2187499999999999  0.3749999999999999  0.12500000000000006  1.0000
  O   O423      1.0  0.2187499999999999  0.4374999999999999  0.12500000000000006  1.0000
  O   O424      1.0  0.2187499999999999  0.49999999999999983  0.12500000000000006  1.0000
  O   O425      1.0  0.2187499999999999  0.5624999999999998  0.12500000000000006  1.0000
  O   O426      1.0  0.2187499999999999  0.6249999999999998  0.12500000000000006  1.0000
  O   O427      1.0  0.2187499999999999  0.6875  0.12500000000000006  1.0000
  O   O428      1.0  0.2187499999999999  0.7499999999999999  0.12500000000000006  1.0000
  O   O429      1.0  0.2187499999999999  0.8124999999999998  0.12500000000000006  1.0000
  O   O430      1.0  0.2187499999999999  0.8750000000000001  0.12500000000000006  1.0000
  O   O431      1.0  0.2187499999999999  0.9374999999999998  0.12500000000000006  1.0000
  O   O432      1.0  0.2187499999999999  0.0  0.12500000000000006  1.0000
  O   O433      1.0  0.25  0.09374999999999999  0.09375000000000004  1.0000
  O   O434      1.0  0.25  0.15625  0.09375000000000004  1.0000
  O   O435      1.0  0.25  0.21874999999999994  0.09375000000000004  1.0000
  O   O436      1.0  0.25  0.28125  0.09375000000000004  1.0000
  O   O437      1.0  0.25  0.34375  0.09375000000000004  1.0000
  O   O438      1.0  0.25  0.4062499999999999  0.09375000000000004  1.0000
  O   O439      1.0  0.25  0.4687499999999999  0.09375000000000004  1.0000
  O   O440      1.0  0.25  0.53125  0.09375000000000004  1.0000
  O   O441      1.0  0.25  0.5937499999999998  0.09375000000000004  1.0000
  O   O442      1.0  0.25  0.6562499999999998  0.09375000000000004  1.0000
  O   O443      1.0  0.25  0.7187499999999999  0.09375000000000004  1.0000
  O   O444      1.0  0.25  0.7812499999999999  0.09375000000000004  1.0000
  O   O445      1.0  0.25  0.8437499999999998  0.09375000000000004  1.0000
  O   O446      1.0  0.25  0.9062499999999998  0.09375000000000004  1.0000
  O   O447      1.0  0.25  0.9687499999999998  0.09375000000000004  1.0000
  O   O448      1.0  0.25  0.031249999999999993  0.09375000000000004  1.0000
  O   O449      1.0  0.2812499999999999  0.062499999999999986  0.06250000000000017  1.0000
  O   O450      1.0  0.2812499999999999  0.12499999999999997  0.06250000000000017  1.0000
  O   O451      1.0  0.2812499999999999  0.18749999999999997  0.06250000000000017  1.0000
  O   O452      1.0  0.2812499999999999  0.24999999999999994  0.06250000000000017  1.0000
  O   O453      1.0  0.2812499999999999  0.3124999999999999  0.06250000000000017  1.0000
  O   O454      1.0  0.2812499999999999  0.3749999999999999  0.06250000000000017  1.0000
  O   O455      1.0  0.2812499999999999  0.4374999999999999  0.06250000000000017  1.0000
  O   O456      1.0  0.2812499999999999  0.49999999999999983  0.06250000000000017  1.0000
  O   O457      1.0  0.2812499999999999  0.5625  0.06250000000000017  1.0000
  O   O458      1.0  0.2812499999999999  0.625  0.06250000000000017  1.0000
  O   O459      1.0  0.2812499999999999  0.6875  0.06250000000000017  1.0000
  O   O460      1.0  0.2812499999999999  0.7499999999999999  0.06250000000000017  1.0000
  O   O461      1.0  0.2812499999999999  0.8124999999999998  0.06250000000000017  1.0000
  O   O462      1.0  0.2812499999999999  0.8750000000000001  0.06250000000000017  1.0000
  O   O463      1.0  0.2812499999999999  0.9374999999999998  0.06250000000000017  1.0000
  O   O464      1.0  0.2812499999999999  0.0  0.06250000000000017  1.0000
  O   O465      1.0  0.3125  0.09374999999999999  0.03125000000000017  1.0000
  O   O466      1.0  0.3125  0.15625  0.03125000000000017  1.0000
  O   O467      1.0  0.3125  0.21874999999999994  0.03125000000000017  1.0000
  O   O468      1.0  0.3125  0.28125  0.03125000000000017  1.0000
  O   O469      1.0  0.3125  0.34375  0.03125000000000017  1.0000
  O   O470      1.0  0.3125  0.4062499999999999  0.03125000000000017  1.0000
  O   O471      1.0  0.3125  0.4687499999999999  0.03125000000000017  1.0000
  O   O472      1.0  0.3125  0.5312499999999999  0.03125000000000017  1.0000
  O   O473      1.0  0.3125  0.5937499999999998  0.03125000000000017  1.0000
  O   O474      1.0  0.3125  0.6562499999999998  0.03125000000000017  1.0000
  O   O475      1.0  0.3125  0.7187499999999999  0.03125000000000017  1.0000
  O   O476      1.0  0.3125  0.7812499999999999  0.03125000000000017  1.0000
  O   O477      1.0  0.3125  0.8437499999999998  0.03125000000000017  1.0000
  O   O478      1.0  0.3125  0.9062499999999998  0.03125000000000017  1.0000
  O   O479      1.0  0.3125  0.9687499999999998  0.03125000000000017  1.0000
  O   O480      1.0  0.3125  0.031249999999999993  0.03125000000000017  1.0000
  O   O481      1.0  0.03125  0.062499999999999986  0.375  1.0000
  O   O482      1.0  0.03125  0.12499999999999997  0.375  1.0000
  O   O483      1.0  0.03125  0.18749999999999997  0.375  1.0000
  O   O484      1.0  0.03125  0.24999999999999994  0.375  1.0000
  O   O485      1.0  0.03125  0.3125  0.375  1.0000
  O   O486      1.0  0.03125  0.37499999999999994  0.375  1.0000
  O   O487      1.0  0.03125  0.4374999999999999  0.375  1.0000
  O   O488      1.0  0.03125  0.49999999999999983  0.375  1.0000
  O   O489      1.0  0.03125  0.5624999999999998  0.375  1.0000
  O   O490      1.0  0.03125  0.6249999999999998  0.375  1.0000
  O   O491      1.0  0.03125  0.6874999999999998  0.375  1.0000
  O   O492      1.0  0.03125  0.7499999999999999  0.375  1.0000
  O   O493      1.0  0.03125  0.8124999999999998  0.375  1.0000
  O   O494      1.0  0.03125  0.8749999999999998  0.375  1.0000
  O   O495      1.0  0.03125  0.9374999999999998  0.375  1.0000
  O   O496      1.0  0.03125  0.9999999999999999  0.375  1.0000
  O   O497      1.0  0.0625  0.09374999999999999  0.34375000000000006  1.0000
  O   O498      1.0  0.0625  0.15625  0.34375000000000006  1.0000
  O   O499      1.0  0.0625  0.21874999999999994  0.34375000000000006  1.0000
  O   O500      1.0  0.0625  0.2812499999999999  0.34375000000000006  1.0000
  O   O501      1.0  0.0625  0.3437499999999999  0.34375000000000006  1.0000
  O   O502      1.0  0.0625  0.4062499999999999  0.34375000000000006  1.0000
  O   O503      1.0  0.0625  0.4687499999999999  0.34375000000000006  1.0000
  O   O504      1.0  0.0625  0.5312499999999999  0.34375000000000006  1.0000
  O   O505      1.0  0.0625  0.59375  0.34375000000000006  1.0000
  O   O506      1.0  0.0625  0.65625  0.34375000000000006  1.0000
  O   O507      1.0  0.0625  0.7187499999999999  0.34375000000000006  1.0000
  O   O508      1.0  0.0625  0.7812499999999999  0.34375000000000006  1.0000
  O   O509      1.0  0.0625  0.8437499999999998  0.34375000000000006  1.0000
  O   O510      1.0  0.0625  0.9062499999999998  0.34375000000000006  1.0000
  O   O511      1.0  0.0625  0.9687499999999998  0.34375000000000006  1.0000
  O   O512      1.0  0.0625  0.031249999999999993  0.34375000000000006  1.0000
  O   O513      1.0  0.09375  0.062499999999999986  0.31250000000000006  1.0000
  O   O514      1.0  0.09375  0.12499999999999997  0.31250000000000006  1.0000
  O   O515      1.0  0.09375  0.18749999999999997  0.31250000000000006  1.0000
  O   O516      1.0  0.09375  0.24999999999999994  0.31250000000000006  1.0000
  O   O517      1.0  0.09375  0.3125  0.31250000000000006  1.0000
  O   O518      1.0  0.09375  0.37499999999999994  0.31250000000000006  1.0000
  O   O519      1.0  0.09375  0.4374999999999999  0.31250000000000006  1.0000
  O   O520      1.0  0.09375  0.49999999999999983  0.31250000000000006  1.0000
  O   O521      1.0  0.09375  0.5624999999999998  0.31250000000000006  1.0000
  O   O522      1.0  0.09375  0.6249999999999998  0.31250000000000006  1.0000
  O   O523      1.0  0.09375  0.6874999999999998  0.31250000000000006  1.0000
  O   O524      1.0  0.09375  0.7499999999999999  0.31250000000000006  1.0000
  O   O525      1.0  0.09375  0.8124999999999998  0.31250000000000006  1.0000
  O   O526      1.0  0.09375  0.8749999999999998  0.31250000000000006  1.0000
  O   O527      1.0  0.09375  0.9374999999999998  0.31250000000000006  1.0000
  O   O528      1.0  0.09375  0.9999999999999999  0.31250000000000006  1.0000
  O   O529      1.0  0.1249999999999999  0.09374999999999999  0.28125000000000006  1.0000
  O   O530      1.0  0.1249999999999999  0.15625  0.28125000000000006  1.0000
  O   O531      1.0  0.1249999999999999  0.21874999999999994  0.28125000000000006  1.0000
  O   O532      1.0  0.1249999999999999  0.2812499999999999  0.28125000000000006  1.0000
  O   O533      1.0  0.1249999999999999  0.3437499999999999  0.28125000000000006  1.0000
  O   O534      1.0  0.1249999999999999  0.4062499999999999  0.28125000000000006  1.0000
  O   O535      1.0  0.1249999999999999  0.4687499999999999  0.28125000000000006  1.0000
  O   O536      1.0  0.1249999999999999  0.53125  0.28125000000000006  1.0000
  O   O537      1.0  0.1249999999999999  0.59375  0.28125000000000006  1.0000
  O   O538      1.0  0.1249999999999999  0.6562499999999998  0.28125000000000006  1.0000
  O   O539      1.0  0.1249999999999999  0.7187499999999999  0.28125000000000006  1.0000
  O   O540      1.0  0.1249999999999999  0.7812500000000001  0.28125000000000006  1.0000
  O   O541      1.0  0.1249999999999999  0.8437499999999998  0.28125000000000006  1.0000
  O   O542      1.0  0.1249999999999999  0.9062499999999998  0.28125000000000006  1.0000
  O   O543      1.0  0.1249999999999999  0.9687499999999998  0.28125000000000006  1.0000
  O   O544      1.0  0.1249999999999999  0.031249999999999993  0.28125000000000006  1.0000
  O   O545      1.0  0.15625000000000006  0.062499999999999986  0.25  1.0000
  O   O546      1.0  0.15625000000000006  0.12499999999999997  0.25  1.0000
  O   O547      1.0  0.15625000000000006  0.18749999999999997  0.25  1.0000
  O   O548      1.0  0.15625000000000006  0.24999999999999994  0.25  1.0000
  O   O549      1.0  0.15625000000000006  0.3125  0.25  1.0000
  O   O550      1.0  0.15625000000000006  0.3749999999999999  0.25  1.0000
  O   O551      1.0  0.15625000000000006  0.4374999999999999  0.25  1.0000
  O   O552      1.0  0.15625000000000006  0.49999999999999983  0.25  1.0000
  O   O553      1.0  0.15625000000000006  0.5624999999999998  0.25  1.0000
  O   O554      1.0  0.15625000000000006  0.6249999999999998  0.25  1.0000
  O   O555      1.0  0.15625000000000006  0.6875  0.25  1.0000
  O   O556      1.0  0.15625000000000006  0.7499999999999999  0.25  1.0000
  O   O557      1.0  0.15625000000000006  0.8124999999999998  0.25  1.0000
  O   O558      1.0  0.15625000000000006  0.8749999999999998  0.25  1.0000
  O   O559      1.0  0.15625000000000006  0.9374999999999998  0.25  1.0000
  O   O560      1.0  0.15625000000000006  0.0  0.25  1.0000
  O   O561      1.0  0.1875  0.09374999999999999  0.21875000000000006  1.0000
  O   O562      1.0  0.1875  0.15625  0.21875000000000006  1.0000
  O   O563      1.0  0.1875  0.21874999999999994  0.21875000000000006  1.0000
  O   O564      1.0  0.1875  0.2812499999999999  0.21875000000000006  1.0000
  O   O565      1.0  0.1875  0.34375  0.21875000000000006  1.0000
  O   O566      1.0  0.1875  0.4062499999999999  0.21875000000000006  1.0000
  O   O567      1.0  0.1875  0.4687499999999999  0.21875000000000006  1.0000
  O   O568      1.0  0.1875  0.53125  0.21875000000000006  1.0000
  O   O569      1.0  0.1875  0.59375  0.21875000000000006  1.0000
  O   O570      1.0  0.1875  0.6562499999999998  0.21875000000000006  1.0000
  O   O571      1.0  0.1875  0.7187499999999999  0.21875000000000006  1.0000
  O   O572      1.0  0.1875  0.7812499999999999  0.21875000000000006  1.0000
  O   O573      1.0  0.1875  0.8437499999999998  0.21875000000000006  1.0000
  O   O574      1.0  0.1875  0.9062499999999998  0.21875000000000006  1.0000
  O   O575      1.0  0.1875  0.9687499999999998  0.21875000000000006  1.0000
  O   O576      1.0  0.1875  0.031249999999999993  0.21875000000000006  1.0000
  O   O577      1.0  0.2187499999999999  0.062499999999999986  0.18750000000000006  1.0000
  O   O578      1.0  0.2187499999999999  0.12499999999999997  0.18750000000000006  1.0000
  O   O579      1.0  0.2187499999999999  0.18749999999999997  0.18750000000000006  1.0000
  O   O580      1.0  0.2187499999999999  0.24999999999999994  0.18750000000000006  1.0000
  O   O581      1.0  0.2187499999999999  0.3124999999999999  0.18750000000000006  1.0000
  O   O582      1.0  0.2187499999999999  0.3749999999999999  0.18750000000000006  1.0000
  O   O583      1.0  0.2187499999999999  0.4374999999999999  0.18750000000000006  1.0000
  O   O584      1.0  0.2187499999999999  0.49999999999999983  0.18750000000000006  1.0000
  O   O585      1.0  0.2187499999999999  0.5624999999999998  0.18750000000000006  1.0000
  O   O586      1.0  0.2187499999999999  0.6249999999999998  0.18750000000000006  1.0000
  O   O587      1.0  0.2187499999999999  0.6875  0.18750000000000006  1.0000
  O   O588      1.0  0.2187499999999999  0.7499999999999999  0.18750000000000006  1.0000
  O   O589      1.0  0.2187499999999999  0.8124999999999998  0.18750000000000006  1.0000
  O   O590      1.0  0.2187499999999999  0.8750000000000001  0.18750000000000006  1.0000
  O   O591      1.0  0.2187499999999999  0.9374999999999998  0.18750000000000006  1.0000
  O   O592      1.0  0.2187499999999999  0.0  0.18750000000000006  1.0000
  O   O593      1.0  0.24999999999999992  0.09374999999999999  0.15625000000000003  1.0000
  O   O594      1.0  0.24999999999999992  0.15625  0.15625000000000003  1.0000
  O   O595      1.0  0.24999999999999992  0.21874999999999994  0.15625000000000003  1.0000
  O   O596      1.0  0.24999999999999992  0.28125  0.15625000000000003  1.0000
  O   O597      1.0  0.24999999999999992  0.34375  0.15625000000000003  1.0000
  O   O598      1.0  0.24999999999999992  0.4062499999999999  0.15625000000000003  1.0000
  O   O599      1.0  0.24999999999999992  0.4687499999999999  0.15625000000000003  1.0000
  O   O600      1.0  0.24999999999999992  0.53125  0.15625000000000003  1.0000
  O   O601      1.0  0.24999999999999992  0.5937499999999998  0.15625000000000003  1.0000
  O   O602      1.0  0.24999999999999992  0.6562499999999998  0.15625000000000003  1.0000
  O   O603      1.0  0.24999999999999992  0.7187499999999999  0.15625000000000003  1.0000
  O   O604      1.0  0.24999999999999992  0.7812499999999999  0.15625000000000003  1.0000
  O   O605      1.0  0.24999999999999992  0.8437499999999998  0.15625000000000003  1.0000
  O   O606      1.0  0.24999999999999992  0.9062499999999998  0.15625000000000003  1.0000
  O   O607      1.0  0.24999999999999992  0.9687499999999998  0.15625000000000003  1.0000
  O   O608      1.0  0.24999999999999992  0.031249999999999993  0.15625000000000003  1.0000
  O   O609      1.0  0.2812499999999999  0.062499999999999986  0.12500000000000006  1.0000
  O   O610      1.0  0.2812499999999999  0.12499999999999997  0.12500000000000006  1.0000
  O   O611      1.0  0.2812499999999999  0.18749999999999997  0.12500000000000006  1.0000
  O   O612      1.0  0.2812499999999999  0.24999999999999994  0.12500000000000006  1.0000
  O   O613      1.0  0.2812499999999999  0.3124999999999999  0.12500000000000006  1.0000
  O   O614      1.0  0.2812499999999999  0.3749999999999999  0.12500000000000006  1.0000
  O   O615      1.0  0.2812499999999999  0.4374999999999999  0.12500000000000006  1.0000
  O   O616      1.0  0.2812499999999999  0.49999999999999983  0.12500000000000006  1.0000
  O   O617      1.0  0.2812499999999999  0.5625  0.12500000000000006  1.0000
  O   O618      1.0  0.2812499999999999  0.625  0.12500000000000006  1.0000
  O   O619      1.0  0.2812499999999999  0.6875  0.12500000000000006  1.0000
  O   O620      1.0  0.2812499999999999  0.7499999999999999  0.12500000000000006  1.0000
  O   O621      1.0  0.2812499999999999  0.8124999999999998  0.12500000000000006  1.0000
  O   O622      1.0  0.2812499999999999  0.8750000000000001  0.12500000000000006  1.0000
  O   O623      1.0  0.2812499999999999  0.9374999999999998  0.12500000000000006  1.0000
  O   O624      1.0  0.2812499999999999  0.0  0.12500000000000006  1.0000
  O   O625      1.0  0.3125  0.09374999999999999  0.09375000000000015  1.0000
  O   O626      1.0  0.3125  0.15625  0.09375000000000015  1.0000
  O   O627      1.0  0.3125  0.21874999999999994  0.09375000000000015  1.0000
  O   O628      1.0  0.3125  0.28125  0.09375000000000015  1.0000
  O   O629      1.0  0.3125  0.34375  0.09375000000000015  1.0000
  O   O630      1.0  0.3125  0.4062499999999999  0.09375000000000015  1.0000
  O   O631      1.0  0.3125  0.4687499999999999  0.09375000000000015  1.0000
  O   O632      1.0  0.3125  0.5312499999999999  0.09375000000000015  1.0000
  O   O633      1.0  0.3125  0.5937499999999998  0.09375000000000015  1.0000
  O   O634      1.0  0.3125  0.6562499999999998  0.09375000000000015  1.0000
  O   O635      1.0  0.3125  0.7187499999999999  0.09375000000000015  1.0000
  O   O636      1.0  0.3125  0.7812499999999999  0.09375000000000015  1.0000
  O   O637      1.0  0.3125  0.8437499999999998  0.09375000000000015  1.0000
  O   O638      1.0  0.3125  0.9062499999999998  0.09375000000000015  1.0000
  O   O639      1.0  0.3125  0.9687499999999998  0.09375000000000015  1.0000
  O   O640      1.0  0.3125  0.031249999999999993  0.09375000000000015  1.0000
  O   O641      1.0  0.34375  0.062499999999999986  0.06250000000000017  1.0000
  O   O642      1.0  0.34375  0.12499999999999997  0.06250000000000017  1.0000
  O   O643      1.0  0.34375  0.18749999999999997  0.06250000000000017  1.0000
  O   O644      1.0  0.34375  0.24999999999999994  0.06250000000000017  1.0000
  O   O645      1.0  0.34375  0.3124999999999999  0.06250000000000017  1.0000
  O   O646      1.0  0.34375  0.3749999999999999  0.06250000000000017  1.0000
  O   O647      1.0  0.34375  0.4374999999999999  0.06250000000000017  1.0000
  O   O648      1.0  0.34375  0.49999999999999983  0.06250000000000017  1.0000
  O   O649      1.0  0.34375  0.5625  0.06250000000000017  1.0000
  O   O650      1.0  0.34375  0.625  0.06250000000000017  1.0000
  O   O651      1.0  0.34375  0.6875  0.06250000000000017  1.0000
  O   O652      1.0  0.34375  0.7499999999999999  0.06250000000000017  1.0000
  O   O653      1.0  0.34375  0.8124999999999998  0.06250000000000017  1.0000
  O   O654      1.0  0.34375  0.8749999999999998  0.06250000000000017  1.0000
  O   O655      1.0  0.34375  0.9374999999999998  0.06250000000000017  1.0000
  O   O656      1.0  0.34375  0.0  0.06250000000000017  1.0000
  O   O657      1.0  0.3749999999999999  0.09374999999999999  0.03125000000000017  1.0000
  O   O658      1.0  0.3749999999999999  0.15625  0.03125000000000017  1.0000
  O   O659      1.0  0.3749999999999999  0.21874999999999994  0.03125000000000017  1.0000
  O   O660      1.0  0.3749999999999999  0.28125  0.03125000000000017  1.0000
  O   O661      1.0  0.3749999999999999  0.34375  0.03125000000000017  1.0000
  O   O662      1.0  0.3749999999999999  0.4062499999999999  0.03125000000000017  1.0000
  O   O663      1.0  0.3749999999999999  0.4687499999999999  0.03125000000000017  1.0000
  O   O664      1.0  0.3749999999999999  0.5312499999999999  0.03125000000000017  1.0000
  O   O665      1.0  0.3749999999999999  0.5937499999999998  0.03125000000000017  1.0000
  O   O666      1.0  0.3749999999999999  0.6562499999999998  0.03125000000000017  1.0000
  O   O667      1.0  0.3749999999999999  0.7187499999999999  0.03125000000000017  1.0000
  O   O668      1.0  0.3749999999999999  0.7812499999999999  0.03125000000000017  1.0000
  O   O669      1.0  0.3749999999999999  0.8437499999999998  0.03125000000000017  1.0000
  O   O670      1.0  0.3749999999999999  0.9062499999999998  0.03125000000000017  1.0000
  O   O671      1.0  0.3749999999999999  0.9687499999999998  0.03125000000000017  1.0000
  O   O672      1.0  0.3749999999999999  0.031249999999999993  0.03125000000000017  1.0000
  O   O673      1.0  0.0312499999999999  0.062499999999999986  0.4375000000000001  1.0000
  O   O674      1.0  0.0312499999999999  0.12499999999999997  0.4375000000000001  1.0000
  O   O675      1.0  0.0312499999999999  0.18749999999999997  0.4375000000000001  1.0000
  O   O676      1.0  0.0312499999999999  0.24999999999999994  0.4375000000000001  1.0000
  O   O677      1.0  0.0312499999999999  0.3125  0.4375000000000001  1.0000
  O   O678      1.0  0.0312499999999999  0.37499999999999994  0.4375000000000001  1.0000
  O   O679      1.0  0.0312499999999999  0.4374999999999999  0.4375000000000001  1.0000
  O   O680      1.0  0.0312499999999999  0.49999999999999983  0.4375000000000001  1.0000
  O   O681      1.0  0.0312499999999999  0.5624999999999998  0.4375000000000001  1.0000
  O   O682      1.0  0.0312499999999999  0.6249999999999998  0.4375000000000001  1.0000
  O   O683      1.0  0.0312499999999999  0.6874999999999998  0.4375000000000001  1.0000
  O   O684      1.0  0.0312499999999999  0.7499999999999999  0.4375000000000001  1.0000
  O   O685      1.0  0.0312499999999999  0.8124999999999998  0.4375000000000001  1.0000
  O   O686      1.0  0.0312499999999999  0.8749999999999998  0.4375000000000001  1.0000
  O   O687      1.0  0.0312499999999999  0.9374999999999998  0.4375000000000001  1.0000
  O   O688      1.0  0.0312499999999999  0.9999999999999999  0.4375000000000001  1.0000
  O   O689      1.0  0.0625  0.09374999999999999  0.40625000000000017  1.0000
  O   O690      1.0  0.0625  0.15625  0.40625000000000017  1.0000
  O   O691      1.0  0.0625  0.21874999999999994  0.40625000000000017  1.0000
  O   O692      1.0  0.0625  0.2812499999999999  0.40625000000000017  1.0000
  O   O693      1.0  0.0625  0.3437499999999999  0.40625000000000017  1.0000
  O   O694      1.0  0.0625  0.4062499999999999  0.40625000000000017  1.0000
  O   O695      1.0  0.0625  0.4687499999999999  0.40625000000000017  1.0000
  O   O696      1.0  0.0625  0.5312499999999999  0.40625000000000017  1.0000
  O   O697      1.0  0.0625  0.59375  0.40625000000000017  1.0000
  O   O698      1.0  0.0625  0.65625  0.40625000000000017  1.0000
  O   O699      1.0  0.0625  0.7187499999999999  0.40625000000000017  1.0000
  O   O700      1.0  0.0625  0.7812499999999999  0.40625000000000017  1.0000
  O   O701      1.0  0.0625  0.8437499999999998  0.40625000000000017  1.0000
  O   O702      1.0  0.0625  0.9062499999999998  0.40625000000000017  1.0000
  O   O703      1.0  0.0625  0.9687499999999998  0.40625000000000017  1.0000
  O   O704      1.0  0.0625  0.031249999999999993  0.40625000000000017  1.0000
  O   O705      1.0  0.09375  0.062499999999999986  0.37499999999999994  1.0000
  O   O706      1.0  0.09375  0.12499999999999997  0.37499999999999994  1.0000
  O   O707      1.0  0.09375  0.18749999999999997  0.37499999999999994  1.0000
  O   O708      1.0  0.09375  0.24999999999999994  0.37499999999999994  1.0000
  O   O709      1.0  0.09375  0.3125  0.37499999999999994  1.0000
  O   O710      1.0  0.09375  0.37499999999999994  0.37499999999999994  1.0000
  O   O711      1.0  0.09375  0.4374999999999999  0.37499999999999994  1.0000
  O   O712      1.0  0.09375  0.49999999999999983  0.37499999999999994  1.0000
  O   O713      1.0  0.09375  0.5624999999999998  0.37499999999999994  1.0000
  O   O714      1.0  0.09375  0.6249999999999998  0.37499999999999994  1.0000
  O   O715      1.0  0.09375  0.6874999999999998  0.37499999999999994  1.0000
  O   O716      1.0  0.09375  0.7499999999999999  0.37499999999999994  1.0000
  O   O717      1.0  0.09375  0.8124999999999998  0.37499999999999994  1.0000
  O   O718      1.0  0.09375  0.8749999999999998  0.37499999999999994  1.0000
  O   O719      1.0  0.09375  0.9374999999999998  0.37499999999999994  1.0000
  O   O720      1.0  0.09375  0.9999999999999999  0.37499999999999994  1.0000
  O   O721      1.0  0.125  0.09374999999999999  0.34375000000000006  1.0000
  O   O722      1.0  0.125  0.15625  0.34375000000000006  1.0000
  O   O723      1.0  0.125  0.21874999999999994  0.34375000000000006  1.0000
  O   O724      1.0  0.125  0.2812499999999999  0.34375000000000006  1.0000
  O   O725      1.0  0.125  0.3437499999999999  0.34375000000000006  1.0000
  O   O726      1.0  0.125  0.4062499999999999  0.34375000000000006  1.0000
  O   O727      1.0  0.125  0.4687499999999999  0.34375000000000006  1.0000
  O   O728      1.0  0.125  0.53125  0.34375000000000006  1.0000
  O   O729      1.0  0.125  0.59375  0.34375000000000006  1.0000
  O   O730      1.0  0.125  0.6562499999999998  0.34375000000000006  1.0000
  O   O731      1.0  0.125  0.7187499999999999  0.34375000000000006  1.0000
  O   O732      1.0  0.125  0.7812500000000001  0.34375000000000006  1.0000
  O   O733      1.0  0.125  0.8437499999999998  0.34375000000000006  1.0000
  O   O734      1.0  0.125  0.9062499999999998  0.34375000000000006  1.0000
  O   O735      1.0  0.125  0.9687499999999998  0.34375000000000006  1.0000
  O   O736      1.0  0.125  0.031249999999999993  0.34375000000000006  1.0000
  O   O737      1.0  0.15624999999999994  0.062499999999999986  0.31250000000000006  1.0000
  O   O738      1.0  0.15624999999999994  0.12499999999999997  0.31250000000000006  1.0000
  O   O739      1.0  0.15624999999999994  0.18749999999999997  0.31250000000000006  1.0000
  O   O740      1.0  0.15624999999999994  0.24999999999999994  0.31250000000000006  1.0000
  O   O741      1.0  0.15624999999999994  0.3125  0.31250000000000006  1.0000
  O   O742      1.0  0.15624999999999994  0.3749999999999999  0.31250000000000006  1.0000
  O   O743      1.0  0.15624999999999994  0.4374999999999999  0.31250000000000006  1.0000
  O   O744      1.0  0.15624999999999994  0.49999999999999983  0.31250000000000006  1.0000
  O   O745      1.0  0.15624999999999994  0.5624999999999998  0.31250000000000006  1.0000
  O   O746      1.0  0.15624999999999994  0.6249999999999998  0.31250000000000006  1.0000
  O   O747      1.0  0.15624999999999994  0.6875  0.31250000000000006  1.0000
  O   O748      1.0  0.15624999999999994  0.7499999999999999  0.31250000000000006  1.0000
  O   O749      1.0  0.15624999999999994  0.8124999999999998  0.31250000000000006  1.0000
  O   O750      1.0  0.15624999999999994  0.8749999999999998  0.31250000000000006  1.0000
  O   O751      1.0  0.15624999999999994  0.9374999999999998  0.31250000000000006  1.0000
  O   O752      1.0  0.15624999999999994  0.0  0.31250000000000006  1.0000
  O   O753      1.0  0.1875  0.09374999999999999  0.2812499999999999  1.0000
  O   O754      1.0  0.1875  0.15625  0.2812499999999999  1.0000
  O   O755      1.0  0.1875  0.21874999999999994  0.2812499999999999  1.0000
  O   O756      1.0  0.1875  0.2812499999999999  0.2812499999999999  1.0000
  O   O757      1.0  0.1875  0.34375  0.2812499999999999  1.0000
  O   O758      1.0  0.1875  0.4062499999999999  0.2812499999999999  1.0000
  O   O759      1.0  0.1875  0.4687499999999999  0.2812499999999999  1.0000
  O   O760      1.0  0.1875  0.53125  0.2812499999999999  1.0000
  O   O761      1.0  0.1875  0.59375  0.2812499999999999  1.0000
  O   O762      1.0  0.1875  0.6562499999999998  0.2812499999999999  1.0000
  O   O763      1.0  0.1875  0.7187499999999999  0.2812499999999999  1.0000
  O   O764      1.0  0.1875  0.7812499999999999  0.2812499999999999  1.0000
  O   O765      1.0  0.1875  0.8437499999999998  0.2812499999999999  1.0000
  O   O766      1.0  0.1875  0.9062499999999998  0.2812499999999999  1.0000
  O   O767      1.0  0.1875  0.9687499999999998  0.2812499999999999  1.0000
  O   O768      1.0  0.1875  0.031249999999999993  0.2812499999999999  1.0000
  O   O769      1.0  0.2187499999999999  0.062499999999999986  0.25  1.0000
  O   O770      1.0  0.2187499999999999  0.12499999999999997  0.25  1.0000
  O   O771      1.0  0.2187499999999999  0.18749999999999997  0.25  1.0000
  O   O772      1.0  0.2187499999999999  0.24999999999999994  0.25  1.0000
  O   O773      1.0  0.2187499999999999  0.3124999999999999  0.25  1.0000
  O   O774      1.0  0.2187499999999999  0.3749999999999999  0.25  1.0000
  O   O775      1.0  0.2187499999999999  0.4374999999999999  0.25  1.0000
  O   O776      1.0  0.2187499999999999  0.49999999999999983  0.25  1.0000
  O   O777      1.0  0.2187499999999999  0.5624999999999998  0.25  1.0000
  O   O778      1.0  0.2187499999999999  0.6249999999999998  0.25  1.0000
  O   O779      1.0  0.2187499999999999  0.6875  0.25  1.0000
  O   O780      1.0  0.2187499999999999  0.7499999999999999  0.25  1.0000
  O   O781      1.0  0.2187499999999999  0.8124999999999998  0.25  1.0000
  O   O782      1.0  0.2187499999999999  0.8750000000000001  0.25  1.0000
  O   O783      1.0  0.2187499999999999  0.9374999999999998  0.25  1.0000
  O   O784      1.0  0.2187499999999999  0.0  0.25  1.0000
  O   O785      1.0  0.24999999999999992  0.09374999999999999  0.21875000000000006  1.0000
  O   O786      1.0  0.24999999999999992  0.15625  0.21875000000000006  1.0000
  O   O787      1.0  0.24999999999999992  0.21874999999999994  0.21875000000000006  1.0000
  O   O788      1.0  0.24999999999999992  0.28125  0.21875000000000006  1.0000
  O   O789      1.0  0.24999999999999992  0.34375  0.21875000000000006  1.0000
  O   O790      1.0  0.24999999999999992  0.4062499999999999  0.21875000000000006  1.0000
  O   O791      1.0  0.24999999999999992  0.4687499999999999  0.21875000000000006  1.0000
  O   O792      1.0  0.24999999999999992  0.53125  0.21875000000000006  1.0000
  O   O793      1.0  0.24999999999999992  0.5937499999999998  0.21875000000000006  1.0000
  O   O794      1.0  0.24999999999999992  0.6562499999999998  0.21875000000000006  1.0000
  O   O795      1.0  0.24999999999999992  0.7187499999999999  0.21875000000000006  1.0000
  O   O796      1.0  0.24999999999999992  0.7812499999999999  0.21875000000000006  1.0000
  O   O797      1.0  0.24999999999999992  0.8437499999999998  0.21875000000000006  1.0000
  O   O798      1.0  0.24999999999999992  0.9062499999999998  0.21875000000000006  1.0000
  O   O799      1.0  0.24999999999999992  0.9687499999999998  0.21875000000000006  1.0000
  O   O800      1.0  0.24999999999999992  0.031249999999999993  0.21875000000000006  1.0000
  O   O801      1.0  0.2812499999999999  0.062499999999999986  0.18750000000000006  1.0000
  O   O802      1.0  0.2812499999999999  0.12499999999999997  0.18750000000000006  1.0000
  O   O803      1.0  0.2812499999999999  0.18749999999999997  0.18750000000000006  1.0000
  O   O804      1.0  0.2812499999999999  0.24999999999999994  0.18750000000000006  1.0000
  O   O805      1.0  0.2812499999999999  0.3124999999999999  0.18750000000000006  1.0000
  O   O806      1.0  0.2812499999999999  0.3749999999999999  0.18750000000000006  1.0000
  O   O807      1.0  0.2812499999999999  0.4374999999999999  0.18750000000000006  1.0000
  O   O808      1.0  0.2812499999999999  0.49999999999999983  0.18750000000000006  1.0000
  O   O809      1.0  0.2812499999999999  0.5625  0.18750000000000006  1.0000
  O   O810      1.0  0.2812499999999999  0.625  0.18750000000000006  1.0000
  O   O811      1.0  0.2812499999999999  0.6875  0.18750000000000006  1.0000
  O   O812      1.0  0.2812499999999999  0.7499999999999999  0.18750000000000006  1.0000
  O   O813      1.0  0.2812499999999999  0.8124999999999998  0.18750000000000006  1.0000
  O   O814      1.0  0.2812499999999999  0.8750000000000001  0.18750000000000006  1.0000
  O   O815      1.0  0.2812499999999999  0.9374999999999998  0.18750000000000006  1.0000
  O   O816      1.0  0.2812499999999999  0.0  0.18750000000000006  1.0000
  O   O817      1.0  0.3125  0.09374999999999999  0.15625000000000003  1.0000
  O   O818      1.0  0.3125  0.15625  0.15625000000000003  1.0000
  O   O819      1.0  0.3125  0.21874999999999994  0.15625000000000003  1.0000
  O   O820      1.0  0.3125  0.28125  0.15625000000000003  1.0000
  O   O821      1.0  0.3125  0.34375  0.15625000000000003  1.0000
  O   O822      1.0  0.3125  0.4062499999999999  0.15625000000000003  1.0000
  O   O823      1.0  0.3125  0.4687499999999999  0.15625000000000003  1.0000
  O   O824      1.0  0.3125  0.5312499999999999  0.15625000000000003  1.0000
  O   O825      1.0  0.3125  0.5937499999999998  0.15625000000000003  1.0000
  O   O826      1.0  0.3125  0.6562499999999998  0.15625000000000003  1.0000
  O   O827      1.0  0.3125  0.7187499999999999  0.15625000000000003  1.0000
  O   O828      1.0  0.3125  0.7812499999999999  0.15625000000000003  1.0000
  O   O829      1.0  0.3125  0.8437499999999998  0.15625000000000003  1.0000
  O   O830      1.0  0.3125  0.9062499999999998  0.15625000000000003  1.0000
  O   O831      1.0  0.3125  0.9687499999999998  0.15625000000000003  1.0000
  O   O832      1.0  0.3125  0.031249999999999993  0.15625000000000003  1.0000
  O   O833      1.0  0.34375  0.062499999999999986  0.12500000000000006  1.0000
  O   O834      1.0  0.34375  0.12499999999999997  0.12500000000000006  1.0000
  O   O835      1.0  0.34375  0.18749999999999997  0.12500000000000006  1.0000
  O   O836      1.0  0.34375  0.24999999999999994  0.12500000000000006  1.0000
  O   O837      1.0  0.34375  0.3124999999999999  0.12500000000000006  1.0000
  O   O838      1.0  0.34375  0.3749999999999999  0.12500000000000006  1.0000
  O   O839      1.0  0.34375  0.4374999999999999  0.12500000000000006  1.0000
  O   O840      1.0  0.34375  0.49999999999999983  0.12500000000000006  1.0000
  O   O841      1.0  0.34375  0.5625  0.12500000000000006  1.0000
  O   O842      1.0  0.34375  0.625  0.12500000000000006  1.0000
  O   O843      1.0  0.34375  0.6875  0.12500000000000006  1.0000
  O   O844      1.0  0.34375  0.7499999999999999  0.12500000000000006  1.0000
  O   O845      1.0  0.34375  0.8124999999999998  0.12500000000000006  1.0000
  O   O846      1.0  0.34375  0.8749999999999998  0.12500000000000006  1.0000
  O   O847      1.0  0.34375  0.9374999999999998  0.12500000000000006  1.0000
  O   O848      1.0  0.34375  0.0  0.12500000000000006  1.0000
  O   O849      1.0  0.3749999999999999  0.09374999999999999  0.09375000000000015  1.0000
  O   O850      1.0  0.3749999999999999  0.15625  0.09375000000000015  1.0000
  O   O851      1.0  0.3749999999999999  0.21874999999999994  0.09375000000000015  1.0000
  O   O852      1.0  0.3749999999999999  0.28125  0.09375000000000015  1.0000
  O   O853      1.0  0.3749999999999999  0.34375  0.09375000000000015  1.0000
  O   O854      1.0  0.3749999999999999  0.4062499999999999  0.09375000000000015  1.0000
  O   O855      1.0  0.3749999999999999  0.4687499999999999  0.09375000000000015  1.0000
  O   O856      1.0  0.3749999999999999  0.5312499999999999  0.09375000000000015  1.0000
  O   O857      1.0  0.3749999999999999  0.5937499999999998  0.09375000000000015  1.0000
  O   O858      1.0  0.3749999999999999  0.6562499999999998  0.09375000000000015  1.0000
  O   O859      1.0  0.3749999999999999  0.7187499999999999  0.09375000000000015  1.0000
  O   O860      1.0  0.3749999999999999  0.7812499999999999  0.09375000000000015  1.0000
  O   O861      1.0  0.3749999999999999  0.8437499999999998  0.09375000000000015  1.0000
  O   O862      1.0  0.3749999999999999  0.9062499999999998  0.09375000000000015  1.0000
  O   O863      1.0  0.3749999999999999  0.9687499999999998  0.09375000000000015  1.0000
  O   O864      1.0  0.3749999999999999  0.031249999999999993  0.09375000000000015  1.0000
  O   O865      1.0  0.4062499999999999  0.062499999999999986  0.06250000000000017  1.0000
  O   O866      1.0  0.4062499999999999  0.12499999999999997  0.06250000000000017  1.0000
  O   O867      1.0  0.4062499999999999  0.18749999999999997  0.06250000000000017  1.0000
  O   O868      1.0  0.4062499999999999  0.24999999999999983  0.06250000000000017  1.0000
  O   O869      1.0  0.4062499999999999  0.3124999999999999  0.06250000000000017  1.0000
  O   O870      1.0  0.4062499999999999  0.37499999999999994  0.06250000000000017  1.0000
  O   O871      1.0  0.4062499999999999  0.4374999999999999  0.06250000000000017  1.0000
  O   O872      1.0  0.4062499999999999  0.4999999999999999  0.06250000000000017  1.0000
  O   O873      1.0  0.4062499999999999  0.5625  0.06250000000000017  1.0000
  O   O874      1.0  0.4062499999999999  0.625  0.06250000000000017  1.0000
  O   O875      1.0  0.4062499999999999  0.6875  0.06250000000000017  1.0000
  O   O876      1.0  0.4062499999999999  0.7500000000000001  0.06250000000000017  1.0000
  O   O877      1.0  0.4062499999999999  0.8124999999999998  0.06250000000000017  1.0000
  O   O878      1.0  0.4062499999999999  0.8749999999999998  0.06250000000000017  1.0000
  O   O879      1.0  0.4062499999999999  0.9374999999999998  0.06250000000000017  1.0000
  O   O880      1.0  0.4062499999999999  0.0  0.06250000000000017  1.0000
  O   O881      1.0  0.4374999999999999  0.09374999999999999  0.03125000000000017  1.0000
  O   O882      1.0  0.4374999999999999  0.15625  0.03125000000000017  1.0000
  O   O883      1.0  0.4374999999999999  0.21874999999999994  0.03125000000000017  1.0000
  O   O884      1.0  0.4374999999999999  0.28125  0.03125000000000017  1.0000
  O   O885      1.0  0.4374999999999999  0.3437499999999999  0.03125000000000017  1.0000
  O   O886      1.0  0.4374999999999999  0.4062499999999999  0.03125000000000017  1.0000
  O   O887      1.0  0.4374999999999999  0.4687499999999999  0.03125000000000017  1.0000
  O   O888      1.0  0.4374999999999999  0.5312499999999999  0.03125000000000017  1.0000
  O   O889      1.0  0.4374999999999999  0.5937499999999998  0.03125000000000017  1.0000
  O   O890      1.0  0.4374999999999999  0.65625  0.03125000000000017  1.0000
  O   O891      1.0  0.4374999999999999  0.7187499999999999  0.03125000000000017  1.0000
  O   O892      1.0  0.4374999999999999  0.7812499999999999  0.03125000000000017  1.0000
  O   O893      1.0  0.4374999999999999  0.8437499999999998  0.03125000000000017  1.0000
  O   O894      1.0  0.4374999999999999  0.9062499999999998  0.03125000000000017  1.0000
  O   O895      1.0  0.4374999999999999  0.9687499999999998  0.03125000000000017  1.0000
  O   O896      1.0  0.4374999999999999  0.031249999999999993  0.03125000000000017  1.0000
  O   O897      1.0  0.03125  0.062499999999999986  0.5  1.0000
  O   O898      1.0  0.03125  0.12499999999999997  0.5  1.0000
  O   O899      1.0  0.03125  0.18749999999999997  0.5  1.0000
  O   O900      1.0  0.03125  0.24999999999999994  0.5  1.0000
  O   O901      1.0  0.03125  0.3125  0.5  1.0000
  O   O902      1.0  0.03125  0.37499999999999994  0.5  1.0000
  O   O903      1.0  0.03125  0.4374999999999999  0.5  1.0000
  O   O904      1.0  0.03125  0.49999999999999983  0.5  1.0000
  O   O905      1.0  0.03125  0.5624999999999998  0.5  1.0000
  O   O906      1.0  0.03125  0.6249999999999998  0.5  1.0000
  O   O907      1.0  0.03125  0.6874999999999998  0.5  1.0000
  O   O908      1.0  0.03125  0.7499999999999999  0.5  1.0000
  O   O909      1.0  0.03125  0.8124999999999998  0.5  1.0000
  O   O910      1.0  0.03125  0.8749999999999998  0.5  1.0000
  O   O911      1.0  0.03125  0.9374999999999998  0.5  1.0000
  O   O912      1.0  0.03125  0.9999999999999999  0.5  1.0000
  O   O913      1.0  0.0625  0.09374999999999999  0.4687500000000001  1.0000
  O   O914      1.0  0.0625  0.15625  0.4687500000000001  1.0000
  O   O915      1.0  0.0625  0.21874999999999994  0.4687500000000001  1.0000
  O   O916      1.0  0.0625  0.2812499999999999  0.4687500000000001  1.0000
  O   O917      1.0  0.0625  0.3437499999999999  0.4687500000000001  1.0000
  O   O918      1.0  0.0625  0.4062499999999999  0.4687500000000001  1.0000
  O   O919      1.0  0.0625  0.4687499999999999  0.4687500000000001  1.0000
  O   O920      1.0  0.0625  0.5312499999999999  0.4687500000000001  1.0000
  O   O921      1.0  0.0625  0.59375  0.4687500000000001  1.0000
  O   O922      1.0  0.0625  0.65625  0.4687500000000001  1.0000
  O   O923      1.0  0.0625  0.7187499999999999  0.4687500000000001  1.0000
  O   O924      1.0  0.0625  0.7812499999999999  0.4687500000000001  1.0000
  O   O925      1.0  0.0625  0.8437499999999998  0.4687500000000001  1.0000
  O   O926      1.0  0.0625  0.9062499999999998  0.4687500000000001  1.0000
  O   O927      1.0  0.0625  0.9687499999999998  0.4687500000000001  1.0000
  O   O928      1.0  0.0625  0.031249999999999993  0.4687500000000001  1.0000
  O   O929      1.0  0.09375  0.062499999999999986  0.4375000000000001  1.0000
  O   O930      1.0  0.09375  0.12499999999999997  0.4375000000000001  1.0000
  O   O931      1.0  0.09375  0.18749999999999997  0.4375000000000001  1.0000
  O   O932      1.0  0.09375  0.24999999999999994  0.4375000000000001  1.0000
  O   O933      1.0  0.09375  0.3125  0.4375000000000001  1.0000
  O   O934      1.0  0.09375  0.37499999999999994  0.4375000000000001  1.0000
  O   O935      1.0  0.09375  0.4374999999999999  0.4375000000000001  1.0000
  O   O936      1.0  0.09375  0.49999999999999983  0.4375000000000001  1.0000
  O   O937      1.0  0.09375  0.5624999999999998  0.4375000000000001  1.0000
  O   O938      1.0  0.09375  0.6249999999999998  0.4375000000000001  1.0000
  O   O939      1.0  0.09375  0.6874999999999998  0.4375000000000001  1.0000
  O   O940      1.0  0.09375  0.7499999999999999  0.4375000000000001  1.0000
  O   O941      1.0  0.09375  0.8124999999999998  0.4375000000000001  1.0000
  O   O942      1.0  0.09375  0.8749999999999998  0.4375000000000001  1.0000
  O   O943      1.0  0.09375  0.9374999999999998  0.4375000000000001  1.0000
  O   O944      1.0  0.09375  0.9999999999999999  0.4375000000000001  1.0000
  O   O945      1.0  0.125  0.09374999999999999  0.40624999999999994  1.0000
  O   O946      1.0  0.125  0.15625  0.40624999999999994  1.0000
  O   O947      1.0  0.125  0.21874999999999994  0.40624999999999994  1.0000
  O   O948      1.0  0.125  0.2812499999999999  0.40624999999999994  1.0000
  O   O949      1.0  0.125  0.3437499999999999  0.40624999999999994  1.0000
  O   O950      1.0  0.125  0.4062499999999999  0.40624999999999994  1.0000
  O   O951      1.0  0.125  0.4687499999999999  0.40624999999999994  1.0000
  O   O952      1.0  0.125  0.53125  0.40624999999999994  1.0000
  O   O953      1.0  0.125  0.59375  0.40624999999999994  1.0000
  O   O954      1.0  0.125  0.6562499999999998  0.40624999999999994  1.0000
  O   O955      1.0  0.125  0.7187499999999999  0.40624999999999994  1.0000
  O   O956      1.0  0.125  0.7812500000000001  0.40624999999999994  1.0000
  O   O957      1.0  0.125  0.8437499999999998  0.40624999999999994  1.0000
  O   O958      1.0  0.125  0.9062499999999998  0.40624999999999994  1.0000
  O   O959      1.0  0.125  0.9687499999999998  0.40624999999999994  1.0000
  O   O960      1.0  0.125  0.031249999999999993  0.40624999999999994  1.0000
  O   O961      1.0  0.15625000000000006  0.062499999999999986  0.375  1.0000
  O   O962      1.0  0.15625000000000006  0.12499999999999997  0.375  1.0000
  O   O963      1.0  0.15625000000000006  0.18749999999999997  0.375  1.0000
  O   O964      1.0  0.15625000000000006  0.24999999999999994  0.375  1.0000
  O   O965      1.0  0.15625000000000006  0.3125  0.375  1.0000
  O   O966      1.0  0.15625000000000006  0.3749999999999999  0.375  1.0000
  O   O967      1.0  0.15625000000000006  0.4374999999999999  0.375  1.0000
  O   O968      1.0  0.15625000000000006  0.49999999999999983  0.375  1.0000
  O   O969      1.0  0.15625000000000006  0.5624999999999998  0.375  1.0000
  O   O970      1.0  0.15625000000000006  0.6249999999999998  0.375  1.0000
  O   O971      1.0  0.15625000000000006  0.6875  0.375  1.0000
  O   O972      1.0  0.15625000000000006  0.7499999999999999  0.375  1.0000
  O   O973      1.0  0.15625000000000006  0.8124999999999998  0.375  1.0000
  O   O974      1.0  0.15625000000000006  0.8749999999999998  0.375  1.0000
  O   O975      1.0  0.15625000000000006  0.9374999999999998  0.375  1.0000
  O   O976      1.0  0.15625000000000006  0.0  0.375  1.0000
  O   O977      1.0  0.1874999999999999  0.09374999999999999  0.34375000000000006  1.0000
  O   O978      1.0  0.1874999999999999  0.15625  0.34375000000000006  1.0000
  O   O979      1.0  0.1874999999999999  0.21874999999999994  0.34375000000000006  1.0000
  O   O980      1.0  0.1874999999999999  0.2812499999999999  0.34375000000000006  1.0000
  O   O981      1.0  0.1874999999999999  0.34375  0.34375000000000006  1.0000
  O   O982      1.0  0.1874999999999999  0.4062499999999999  0.34375000000000006  1.0000
  O   O983      1.0  0.1874999999999999  0.4687499999999999  0.34375000000000006  1.0000
  O   O984      1.0  0.1874999999999999  0.53125  0.34375000000000006  1.0000
  O   O985      1.0  0.1874999999999999  0.59375  0.34375000000000006  1.0000
  O   O986      1.0  0.1874999999999999  0.6562499999999998  0.34375000000000006  1.0000
  O   O987      1.0  0.1874999999999999  0.7187499999999999  0.34375000000000006  1.0000
  O   O988      1.0  0.1874999999999999  0.7812499999999999  0.34375000000000006  1.0000
  O   O989      1.0  0.1874999999999999  0.8437499999999998  0.34375000000000006  1.0000
  O   O990      1.0  0.1874999999999999  0.9062499999999998  0.34375000000000006  1.0000
  O   O991      1.0  0.1874999999999999  0.9687499999999998  0.34375000000000006  1.0000
  O   O992      1.0  0.1874999999999999  0.031249999999999993  0.34375000000000006  1.0000
  O   O993      1.0  0.21875  0.062499999999999986  0.31250000000000006  1.0000
  O   O994      1.0  0.21875  0.12499999999999997  0.31250000000000006  1.0000
  O   O995      1.0  0.21875  0.18749999999999997  0.31250000000000006  1.0000
  O   O996      1.0  0.21875  0.24999999999999994  0.31250000000000006  1.0000
  O   O997      1.0  0.21875  0.3124999999999999  0.31250000000000006  1.0000
  O   O998      1.0  0.21875  0.3749999999999999  0.31250000000000006  1.0000
  O   O999      1.0  0.21875  0.4374999999999999  0.31250000000000006  1.0000
  O   O1000     1.0  0.21875  0.49999999999999983  0.31250000000000006  1.0000
  O   O1001     1.0  0.21875  0.5624999999999998  0.31250000000000006  1.0000
  O   O1002     1.0  0.21875  0.6249999999999998  0.31250000000000006  1.0000
  O   O1003     1.0  0.21875  0.6875  0.31250000000000006  1.0000
  O   O1004     1.0  0.21875  0.7499999999999999  0.31250000000000006  1.0000
  O   O1005     1.0  0.21875  0.8124999999999998  0.31250000000000006  1.0000
  O   O1006     1.0  0.21875  0.8750000000000001  0.31250000000000006  1.0000
  O   O1007     1.0  0.21875  0.9374999999999998  0.31250000000000006  1.0000
  O   O1008     1.0  0.21875  0.0  0.31250000000000006  1.0000
  O   O1009     1.0  0.24999999999999992  0.09374999999999999  0.2812499999999999  1.0000
  O   O1010     1.0  0.24999999999999992  0.15625  0.2812499999999999  1.0000
  O   O1011     1.0  0.24999999999999992  0.21874999999999994  0.2812499999999999  1.0000
  O   O1012     1.0  0.24999999999999992  0.28125  0.2812499999999999  1.0000
  O   O1013     1.0  0.24999999999999992  0.34375  0.2812499999999999  1.0000
  O   O1014     1.0  0.24999999999999992  0.4062499999999999  0.2812499999999999  1.0000
  O   O1015     1.0  0.24999999999999992  0.4687499999999999  0.2812499999999999  1.0000
  O   O1016     1.0  0.24999999999999992  0.53125  0.2812499999999999  1.0000
  O   O1017     1.0  0.24999999999999992  0.5937499999999998  0.2812499999999999  1.0000
  O   O1018     1.0  0.24999999999999992  0.6562499999999998  0.2812499999999999  1.0000
  O   O1019     1.0  0.24999999999999992  0.7187499999999999  0.2812499999999999  1.0000
  O   O1020     1.0  0.24999999999999992  0.7812499999999999  0.2812499999999999  1.0000
  O   O1021     1.0  0.24999999999999992  0.8437499999999998  0.2812499999999999  1.0000
  O   O1022     1.0  0.24999999999999992  0.9062499999999998  0.2812499999999999  1.0000
  O   O1023     1.0  0.24999999999999992  0.9687499999999998  0.2812499999999999  1.0000
  O   O1024     1.0  0.24999999999999992  0.031249999999999993  0.2812499999999999  1.0000
  O   O1025     1.0  0.2812499999999999  0.062499999999999986  0.25  1.0000
  O   O1026     1.0  0.2812499999999999  0.12499999999999997  0.25  1.0000
  O   O1027     1.0  0.2812499999999999  0.18749999999999997  0.25  1.0000
  O   O1028     1.0  0.2812499999999999  0.24999999999999994  0.25  1.0000
  O   O1029     1.0  0.2812499999999999  0.3124999999999999  0.25  1.0000
  O   O1030     1.0  0.2812499999999999  0.3749999999999999  0.25  1.0000
  O   O1031     1.0  0.2812499999999999  0.4374999999999999  0.25  1.0000
  O   O1032     1.0  0.2812499999999999  0.49999999999999983  0.25  1.0000
  O   O1033     1.0  0.2812499999999999  0.5625  0.25  1.0000
  O   O1034     1.0  0.2812499999999999  0.625  0.25  1.0000
  O   O1035     1.0  0.2812499999999999  0.6875  0.25  1.0000
  O   O1036     1.0  0.2812499999999999  0.7499999999999999  0.25  1.0000
  O   O1037     1.0  0.2812499999999999  0.8124999999999998  0.25  1.0000
  O   O1038     1.0  0.2812499999999999  0.8750000000000001  0.25  1.0000
  O   O1039     1.0  0.2812499999999999  0.9374999999999998  0.25  1.0000
  O   O1040     1.0  0.2812499999999999  0.0  0.25  1.0000
  O   O1041     1.0  0.3125  0.09374999999999999  0.21875000000000006  1.0000
  O   O1042     1.0  0.3125  0.15625  0.21875000000000006  1.0000
  O   O1043     1.0  0.3125  0.21874999999999994  0.21875000000000006  1.0000
  O   O1044     1.0  0.3125  0.28125  0.21875000000000006  1.0000
  O   O1045     1.0  0.3125  0.34375  0.21875000000000006  1.0000
  O   O1046     1.0  0.3125  0.4062499999999999  0.21875000000000006  1.0000
  O   O1047     1.0  0.3125  0.4687499999999999  0.21875000000000006  1.0000
  O   O1048     1.0  0.3125  0.5312499999999999  0.21875000000000006  1.0000
  O   O1049     1.0  0.3125  0.5937499999999998  0.21875000000000006  1.0000
  O   O1050     1.0  0.3125  0.6562499999999998  0.21875000000000006  1.0000
  O   O1051     1.0  0.3125  0.7187499999999999  0.21875000000000006  1.0000
  O   O1052     1.0  0.3125  0.7812499999999999  0.21875000000000006  1.0000
  O   O1053     1.0  0.3125  0.8437499999999998  0.21875000000000006  1.0000
  O   O1054     1.0  0.3125  0.9062499999999998  0.21875000000000006  1.0000
  O   O1055     1.0  0.3125  0.9687499999999998  0.21875000000000006  1.0000
  O   O1056     1.0  0.3125  0.031249999999999993  0.21875000000000006  1.0000
  O   O1057     1.0  0.34375  0.062499999999999986  0.18750000000000006  1.0000
  O   O1058     1.0  0.34375  0.12499999999999997  0.18750000000000006  1.0000
  O   O1059     1.0  0.34375  0.18749999999999997  0.18750000000000006  1.0000
  O   O1060     1.0  0.34375  0.24999999999999994  0.18750000000000006  1.0000
  O   O1061     1.0  0.34375  0.3124999999999999  0.18750000000000006  1.0000
  O   O1062     1.0  0.34375  0.3749999999999999  0.18750000000000006  1.0000
  O   O1063     1.0  0.34375  0.4374999999999999  0.18750000000000006  1.0000
  O   O1064     1.0  0.34375  0.49999999999999983  0.18750000000000006  1.0000
  O   O1065     1.0  0.34375  0.5625  0.18750000000000006  1.0000
  O   O1066     1.0  0.34375  0.625  0.18750000000000006  1.0000
  O   O1067     1.0  0.34375  0.6875  0.18750000000000006  1.0000
  O   O1068     1.0  0.34375  0.7499999999999999  0.18750000000000006  1.0000
  O   O1069     1.0  0.34375  0.8124999999999998  0.18750000000000006  1.0000
  O   O1070     1.0  0.34375  0.8749999999999998  0.18750000000000006  1.0000
  O   O1071     1.0  0.34375  0.9374999999999998  0.18750000000000006  1.0000
  O   O1072     1.0  0.34375  0.0  0.18750000000000006  1.0000
  O   O1073     1.0  0.3749999999999999  0.09374999999999999  0.15625000000000003  1.0000
  O   O1074     1.0  0.3749999999999999  0.15625  0.15625000000000003  1.0000
  O   O1075     1.0  0.3749999999999999  0.21874999999999994  0.15625000000000003  1.0000
  O   O1076     1.0  0.3749999999999999  0.28125  0.15625000000000003  1.0000
  O   O1077     1.0  0.3749999999999999  0.34375  0.15625000000000003  1.0000
  O   O1078     1.0  0.3749999999999999  0.4062499999999999  0.15625000000000003  1.0000
  O   O1079     1.0  0.3749999999999999  0.4687499999999999  0.15625000000000003  1.0000
  O   O1080     1.0  0.3749999999999999  0.5312499999999999  0.15625000000000003  1.0000
  O   O1081     1.0  0.3749999999999999  0.5937499999999998  0.15625000000000003  1.0000
  O   O1082     1.0  0.3749999999999999  0.6562499999999998  0.15625000000000003  1.0000
  O   O1083     1.0  0.3749999999999999  0.7187499999999999  0.15625000000000003  1.0000
  O   O1084     1.0  0.3749999999999999  0.7812499999999999  0.15625000000000003  1.0000
  O   O1085     1.0  0.3749999999999999  0.8437499999999998  0.15625000000000003  1.0000
  O   O1086     1.0  0.3749999999999999  0.9062499999999998  0.15625000000000003  1.0000
  O   O1087     1.0  0.3749999999999999  0.9687499999999998  0.15625000000000003  1.0000
  O   O1088     1.0  0.3749999999999999  0.031249999999999993  0.15625000000000003  1.0000
  O   O1089     1.0  0.4062499999999999  0.062499999999999986  0.12500000000000006  1.0000
  O   O1090     1.0  0.4062499999999999  0.12499999999999997  0.12500000000000006  1.0000
  O   O1091     1.0  0.4062499999999999  0.18749999999999997  0.12500000000000006  1.0000
  O   O1092     1.0  0.4062499999999999  0.24999999999999983  0.12500000000000006  1.0000
  O   O1093     1.0  0.4062499999999999  0.3124999999999999  0.12500000000000006  1.0000
  O   O1094     1.0  0.4062499999999999  0.37499999999999994  0.12500000000000006  1.0000
  O   O1095     1.0  0.4062499999999999  0.4374999999999999  0.12500000000000006  1.0000
  O   O1096     1.0  0.4062499999999999  0.4999999999999999  0.12500000000000006  1.0000
  O   O1097     1.0  0.4062499999999999  0.5625  0.12500000000000006  1.0000
  O   O1098     1.0  0.4062499999999999  0.625  0.12500000000000006  1.0000
  O   O1099     1.0  0.4062499999999999  0.6875  0.12500000000000006  1.0000
  O   O1100     1.0  0.4062499999999999  0.7500000000000001  0.12500000000000006  1.0000
  O   O1101     1.0  0.4062499999999999  0.8124999999999998  0.12500000000000006  1.0000
  O   O1102     1.0  0.4062499999999999  0.8749999999999998  0.12500000000000006  1.0000
  O   O1103     1.0  0.4062499999999999  0.9374999999999998  0.12500000000000006  1.0000
  O   O1104     1.0  0.4062499999999999  0.0  0.12500000000000006  1.0000
  O   O1105     1.0  0.4374999999999999  0.09374999999999999  0.09375000000000015  1.0000
  O   O1106     1.0  0.4374999999999999  0.15625  0.09375000000000015  1.0000
  O   O1107     1.0  0.4374999999999999  0.21874999999999994  0.09375000000000015  1.0000
  O   O1108     1.0  0.4374999999999999  0.28125  0.09375000000000015  1.0000
  O   O1109     1.0  0.4374999999999999  0.3437499999999999  0.09375000000000015  1.0000
  O   O1110     1.0  0.4374999999999999  0.4062499999999999  0.09375000000000015  1.0000
  O   O1111     1.0  0.4374999999999999  0.4687499999999999  0.09375000000000015  1.0000
  O   O1112     1.0  0.4374999999999999  0.5312499999999999  0.09375000000000015  1.0000
  O   O1113     1.0  0.4374999999999999  0.5937499999999998  0.09375000000000015  1.0000
  O   O1114     1.0  0.4374999999999999  0.65625  0.09375000000000015  1.0000
  O   O1115     1.0  0.4374999999999999  0.7187499999999999  0.09375000000000015  1.0000
  O   O1116     1.0  0.4374999999999999  0.7812499999999999  0.09375000000000015  1.0000
  O   O1117     1.0  0.4374999999999999  0.8437499999999998  0.09375000000000015  1.0000
  O   O1118     1.0  0.4374999999999999  0.9062499999999998  0.09375000000000015  1.0000
  O   O1119     1.0  0.4374999999999999  0.9687499999999998  0.09375000000000015  1.0000
  O   O1120     1.0  0.4374999999999999  0.031249999999999993  0.09375000000000015  1.0000
  O   O1121     1.0  0.4687499999999999  0.062499999999999986  0.06250000000000006  1.0000
  O   O1122     1.0  0.4687499999999999  0.12499999999999997  0.06250000000000006  1.0000
  O   O1123     1.0  0.4687499999999999  0.18749999999999997  0.06250000000000006  1.0000
  O   O1124     1.0  0.4687499999999999  0.24999999999999983  0.06250000000000006  1.0000
  O   O1125     1.0  0.4687499999999999  0.3125  0.06250000000000006  1.0000
  O   O1126     1.0  0.4687499999999999  0.37499999999999994  0.06250000000000006  1.0000
  O   O1127     1.0  0.4687499999999999  0.4374999999999999  0.06250000000000006  1.0000
  O   O1128     1.0  0.4687499999999999  0.49999999999999983  0.06250000000000006  1.0000
  O   O1129     1.0  0.4687499999999999  0.5625  0.06250000000000006  1.0000
  O   O1130     1.0  0.4687499999999999  0.6249999999999998  0.06250000000000006  1.0000
  O   O1131     1.0  0.4687499999999999  0.6875  0.06250000000000006  1.0000
  O   O1132     1.0  0.4687499999999999  0.7500000000000001  0.06250000000000006  1.0000
  O   O1133     1.0  0.4687499999999999  0.8124999999999998  0.06250000000000006  1.0000
  O   O1134     1.0  0.4687499999999999  0.8749999999999998  0.06250000000000006  1.0000
  O   O1135     1.0  0.4687499999999999  0.9374999999999998  0.06250000000000006  1.0000
  O   O1136     1.0  0.4687499999999999  0.0  0.06250000000000006  1.0000
  O   O1137     1.0  0.49999999999999994  0.09374999999999999  0.03125000000000017  1.0000
  O   O1138     1.0  0.49999999999999994  0.15625  0.03125000000000017  1.0000
  O   O1139     1.0  0.49999999999999994  0.21874999999999994  0.03125000000000017  1.0000
  O   O1140     1.0  0.49999999999999994  0.28125  0.03125000000000017  1.0000
  O   O1141     1.0  0.49999999999999994  0.3437499999999999  0.03125000000000017  1.0000
  O   O1142     1.0  0.49999999999999994  0.4062499999999999  0.03125000000000017  1.0000
  O   O1143     1.0  0.49999999999999994  0.4687499999999999  0.03125000000000017  1.0000
  O   O1144     1.0  0.49999999999999994  0.5312499999999999  0.03125000000000017  1.0000
  O   O1145     1.0  0.49999999999999994  0.5937499999999998  0.03125000000000017  1.0000
  O   O1146     1.0  0.49999999999999994  0.65625  0.03125000000000017  1.0000
  O   O1147     1.0  0.49999999999999994  0.7187499999999999  0.03125000000000017  1.0000
  O   O1148     1.0  0.49999999999999994  0.7812499999999999  0.03125000000000017  1.0000
  O   O1149     1.0  0.49999999999999994  0.8437500000000001  0.03125000000000017  1.0000
  O   O1150     1.0  0.49999999999999994  0.9062499999999998  0.03125000000000017  1.0000
  O   O1151     1.0  0.49999999999999994  0.9687499999999998  0.03125000000000017  1.0000
  O   O1152     1.0  0.49999999999999994  0.031249999999999993  0.03125000000000017  1.0000
  O   O1153     1.0  0.03125  0.062499999999999986  0.5625000000000001  1.0000
  O   O1154     1.0  0.03125  0.12499999999999997  0.5625000000000001  1.0000
  O   O1155     1.0  0.03125  0.18749999999999997  0.5625000000000001  1.0000
  O   O1156     1.0  0.03125  0.24999999999999994  0.5625000000000001  1.0000
  O   O1157     1.0  0.03125  0.3125  0.5625000000000001  1.0000
  O   O1158     1.0  0.03125  0.37499999999999994  0.5625000000000001  1.0000
  O   O1159     1.0  0.03125  0.4374999999999999  0.5625000000000001  1.0000
  O   O1160     1.0  0.03125  0.49999999999999983  0.5625000000000001  1.0000
  O   O1161     1.0  0.03125  0.5624999999999998  0.5625000000000001  1.0000
  O   O1162     1.0  0.03125  0.6249999999999998  0.5625000000000001  1.0000
  O   O1163     1.0  0.03125  0.6874999999999998  0.5625000000000001  1.0000
  O   O1164     1.0  0.03125  0.7499999999999999  0.5625000000000001  1.0000
  O   O1165     1.0  0.03125  0.8124999999999998  0.5625000000000001  1.0000
  O   O1166     1.0  0.03125  0.8749999999999998  0.5625000000000001  1.0000
  O   O1167     1.0  0.03125  0.9374999999999998  0.5625000000000001  1.0000
  O   O1168     1.0  0.03125  0.9999999999999999  0.5625000000000001  1.0000
  O   O1169     1.0  0.0625  0.09374999999999999  0.53125  1.0000
  O   O1170     1.0  0.0625  0.15625  0.53125  1.0000
  O   O1171     1.0  0.0625  0.21874999999999994  0.53125  1.0000
  O   O1172     1.0  0.0625  0.2812499999999999  0.53125  1.0000
  O   O1173     1.0  0.0625  0.3437499999999999  0.53125  1.0000
  O   O1174     1.0  0.0625  0.4062499999999999  0.53125  1.0000
  O   O1175     1.0  0.0625  0.4687499999999999  0.53125  1.0000
  O   O1176     1.0  0.0625  0.5312499999999999  0.53125  1.0000
  O   O1177     1.0  0.0625  0.59375  0.53125  1.0000
  O   O1178     1.0  0.0625  0.65625  0.53125  1.0000
  O   O1179     1.0  0.0625  0.7187499999999999  0.53125  1.0000
  O   O1180     1.0  0.0625  0.7812499999999999  0.53125  1.0000
  O   O1181     1.0  0.0625  0.8437499999999998  0.53125  1.0000
  O   O1182     1.0  0.0625  0.9062499999999998  0.53125  1.0000
  O   O1183     1.0  0.0625  0.9687499999999998  0.53125  1.0000
  O   O1184     1.0  0.0625  0.031249999999999993  0.53125  1.0000
  O   O1185     1.0  0.0937499999999999  0.062499999999999986  0.5  1.0000
  O   O1186     1.0  0.0937499999999999  0.12499999999999997  0.5  1.0000
  O   O1187     1.0  0.0937499999999999  0.18749999999999997  0.5  1.0000
  O   O1188     1.0  0.0937499999999999  0.24999999999999994  0.5  1.0000
  O   O1189     1.0  0.0937499999999999  0.3125  0.5  1.0000
  O   O1190     1.0  0.0937499999999999  0.37499999999999994  0.5  1.0000
  O   O1191     1.0  0.0937499999999999  0.4374999999999999  0.5  1.0000
  O   O1192     1.0  0.0937499999999999  0.49999999999999983  0.5  1.0000
  O   O1193     1.0  0.0937499999999999  0.5624999999999998  0.5  1.0000
  O   O1194     1.0  0.0937499999999999  0.6249999999999998  0.5  1.0000
  O   O1195     1.0  0.0937499999999999  0.6874999999999998  0.5  1.0000
  O   O1196     1.0  0.0937499999999999  0.7499999999999999  0.5  1.0000
  O   O1197     1.0  0.0937499999999999  0.8124999999999998  0.5  1.0000
  O   O1198     1.0  0.0937499999999999  0.8749999999999998  0.5  1.0000
  O   O1199     1.0  0.0937499999999999  0.9374999999999998  0.5  1.0000
  O   O1200     1.0  0.0937499999999999  0.9999999999999999  0.5  1.0000
  O   O1201     1.0  0.125  0.09374999999999999  0.4687500000000001  1.0000
  O   O1202     1.0  0.125  0.15625  0.4687500000000001  1.0000
  O   O1203     1.0  0.125  0.21874999999999994  0.4687500000000001  1.0000
  O   O1204     1.0  0.125  0.2812499999999999  0.4687500000000001  1.0000
  O   O1205     1.0  0.125  0.3437499999999999  0.4687500000000001  1.0000
  O   O1206     1.0  0.125  0.4062499999999999  0.4687500000000001  1.0000
  O   O1207     1.0  0.125  0.4687499999999999  0.4687500000000001  1.0000
  O   O1208     1.0  0.125  0.53125  0.4687500000000001  1.0000
  O   O1209     1.0  0.125  0.59375  0.4687500000000001  1.0000
  O   O1210     1.0  0.125  0.6562499999999998  0.4687500000000001  1.0000
  O   O1211     1.0  0.125  0.7187499999999999  0.4687500000000001  1.0000
  O   O1212     1.0  0.125  0.7812500000000001  0.4687500000000001  1.0000
  O   O1213     1.0  0.125  0.8437499999999998  0.4687500000000001  1.0000
  O   O1214     1.0  0.125  0.9062499999999998  0.4687500000000001  1.0000
  O   O1215     1.0  0.125  0.9687499999999998  0.4687500000000001  1.0000
  O   O1216     1.0  0.125  0.031249999999999993  0.4687500000000001  1.0000
  O   O1217     1.0  0.15625000000000006  0.062499999999999986  0.43749999999999994  1.0000
  O   O1218     1.0  0.15625000000000006  0.12499999999999997  0.43749999999999994  1.0000
  O   O1219     1.0  0.15625000000000006  0.18749999999999997  0.43749999999999994  1.0000
  O   O1220     1.0  0.15625000000000006  0.24999999999999994  0.43749999999999994  1.0000
  O   O1221     1.0  0.15625000000000006  0.3125  0.43749999999999994  1.0000
  O   O1222     1.0  0.15625000000000006  0.3749999999999999  0.43749999999999994  1.0000
  O   O1223     1.0  0.15625000000000006  0.4374999999999999  0.43749999999999994  1.0000
  O   O1224     1.0  0.15625000000000006  0.49999999999999983  0.43749999999999994  1.0000
  O   O1225     1.0  0.15625000000000006  0.5624999999999998  0.43749999999999994  1.0000
  O   O1226     1.0  0.15625000000000006  0.6249999999999998  0.43749999999999994  1.0000
  O   O1227     1.0  0.15625000000000006  0.6875  0.43749999999999994  1.0000
  O   O1228     1.0  0.15625000000000006  0.7499999999999999  0.43749999999999994  1.0000
  O   O1229     1.0  0.15625000000000006  0.8124999999999998  0.43749999999999994  1.0000
  O   O1230     1.0  0.15625000000000006  0.8749999999999998  0.43749999999999994  1.0000
  O   O1231     1.0  0.15625000000000006  0.9374999999999998  0.43749999999999994  1.0000
  O   O1232     1.0  0.15625000000000006  0.0  0.43749999999999994  1.0000
  O   O1233     1.0  0.1874999999999999  0.09374999999999999  0.40625000000000017  1.0000
  O   O1234     1.0  0.1874999999999999  0.15625  0.40625000000000017  1.0000
  O   O1235     1.0  0.1874999999999999  0.21874999999999994  0.40625000000000017  1.0000
  O   O1236     1.0  0.1874999999999999  0.2812499999999999  0.40625000000000017  1.0000
  O   O1237     1.0  0.1874999999999999  0.34375  0.40625000000000017  1.0000
  O   O1238     1.0  0.1874999999999999  0.4062499999999999  0.40625000000000017  1.0000
  O   O1239     1.0  0.1874999999999999  0.4687499999999999  0.40625000000000017  1.0000
  O   O1240     1.0  0.1874999999999999  0.53125  0.40625000000000017  1.0000
  O   O1241     1.0  0.1874999999999999  0.59375  0.40625000000000017  1.0000
  O   O1242     1.0  0.1874999999999999  0.6562499999999998  0.40625000000000017  1.0000
  O   O1243     1.0  0.1874999999999999  0.7187499999999999  0.40625000000000017  1.0000
  O   O1244     1.0  0.1874999999999999  0.7812499999999999  0.40625000000000017  1.0000
  O   O1245     1.0  0.1874999999999999  0.8437499999999998  0.40625000000000017  1.0000
  O   O1246     1.0  0.1874999999999999  0.9062499999999998  0.40625000000000017  1.0000
  O   O1247     1.0  0.1874999999999999  0.9687499999999998  0.40625000000000017  1.0000
  O   O1248     1.0  0.1874999999999999  0.031249999999999993  0.40625000000000017  1.0000
  O   O1249     1.0  0.2187499999999999  0.062499999999999986  0.375  1.0000
  O   O1250     1.0  0.2187499999999999  0.12499999999999997  0.375  1.0000
  O   O1251     1.0  0.2187499999999999  0.18749999999999997  0.375  1.0000
  O   O1252     1.0  0.2187499999999999  0.24999999999999994  0.375  1.0000
  O   O1253     1.0  0.2187499999999999  0.3124999999999999  0.375  1.0000
  O   O1254     1.0  0.2187499999999999  0.3749999999999999  0.375  1.0000
  O   O1255     1.0  0.2187499999999999  0.4374999999999999  0.375  1.0000
  O   O1256     1.0  0.2187499999999999  0.49999999999999983  0.375  1.0000
  O   O1257     1.0  0.2187499999999999  0.5624999999999998  0.375  1.0000
  O   O1258     1.0  0.2187499999999999  0.6249999999999998  0.375  1.0000
  O   O1259     1.0  0.2187499999999999  0.6875  0.375  1.0000
  O   O1260     1.0  0.2187499999999999  0.7499999999999999  0.375  1.0000
  O   O1261     1.0  0.2187499999999999  0.8124999999999998  0.375  1.0000
  O   O1262     1.0  0.2187499999999999  0.8750000000000001  0.375  1.0000
  O   O1263     1.0  0.2187499999999999  0.9374999999999998  0.375  1.0000
  O   O1264     1.0  0.2187499999999999  0.0  0.375  1.0000
  O   O1265     1.0  0.25  0.09374999999999999  0.34375000000000006  1.0000
  O   O1266     1.0  0.25  0.15625  0.34375000000000006  1.0000
  O   O1267     1.0  0.25  0.21874999999999994  0.34375000000000006  1.0000
  O   O1268     1.0  0.25  0.28125  0.34375000000000006  1.0000
  O   O1269     1.0  0.25  0.34375  0.34375000000000006  1.0000
  O   O1270     1.0  0.25  0.4062499999999999  0.34375000000000006  1.0000
  O   O1271     1.0  0.25  0.4687499999999999  0.34375000000000006  1.0000
  O   O1272     1.0  0.25  0.53125  0.34375000000000006  1.0000
  O   O1273     1.0  0.25  0.5937499999999998  0.34375000000000006  1.0000
  O   O1274     1.0  0.25  0.6562499999999998  0.34375000000000006  1.0000
  O   O1275     1.0  0.25  0.7187499999999999  0.34375000000000006  1.0000
  O   O1276     1.0  0.25  0.7812499999999999  0.34375000000000006  1.0000
  O   O1277     1.0  0.25  0.8437499999999998  0.34375000000000006  1.0000
  O   O1278     1.0  0.25  0.9062499999999998  0.34375000000000006  1.0000
  O   O1279     1.0  0.25  0.9687499999999998  0.34375000000000006  1.0000
  O   O1280     1.0  0.25  0.031249999999999993  0.34375000000000006  1.0000
  O   O1281     1.0  0.2812499999999999  0.062499999999999986  0.31250000000000006  1.0000
  O   O1282     1.0  0.2812499999999999  0.12499999999999997  0.31250000000000006  1.0000
  O   O1283     1.0  0.2812499999999999  0.18749999999999997  0.31250000000000006  1.0000
  O   O1284     1.0  0.2812499999999999  0.24999999999999994  0.31250000000000006  1.0000
  O   O1285     1.0  0.2812499999999999  0.3124999999999999  0.31250000000000006  1.0000
  O   O1286     1.0  0.2812499999999999  0.3749999999999999  0.31250000000000006  1.0000
  O   O1287     1.0  0.2812499999999999  0.4374999999999999  0.31250000000000006  1.0000
  O   O1288     1.0  0.2812499999999999  0.49999999999999983  0.31250000000000006  1.0000
  O   O1289     1.0  0.2812499999999999  0.5625  0.31250000000000006  1.0000
  O   O1290     1.0  0.2812499999999999  0.625  0.31250000000000006  1.0000
  O   O1291     1.0  0.2812499999999999  0.6875  0.31250000000000006  1.0000
  O   O1292     1.0  0.2812499999999999  0.7499999999999999  0.31250000000000006  1.0000
  O   O1293     1.0  0.2812499999999999  0.8124999999999998  0.31250000000000006  1.0000
  O   O1294     1.0  0.2812499999999999  0.8750000000000001  0.31250000000000006  1.0000
  O   O1295     1.0  0.2812499999999999  0.9374999999999998  0.31250000000000006  1.0000
  O   O1296     1.0  0.2812499999999999  0.0  0.31250000000000006  1.0000
  O   O1297     1.0  0.3125  0.09374999999999999  0.28125000000000006  1.0000
  O   O1298     1.0  0.3125  0.15625  0.28125000000000006  1.0000
  O   O1299     1.0  0.3125  0.21874999999999994  0.28125000000000006  1.0000
  O   O1300     1.0  0.3125  0.28125  0.28125000000000006  1.0000
  O   O1301     1.0  0.3125  0.34375  0.28125000000000006  1.0000
  O   O1302     1.0  0.3125  0.4062499999999999  0.28125000000000006  1.0000
  O   O1303     1.0  0.3125  0.4687499999999999  0.28125000000000006  1.0000
  O   O1304     1.0  0.3125  0.5312499999999999  0.28125000000000006  1.0000
  O   O1305     1.0  0.3125  0.5937499999999998  0.28125000000000006  1.0000
  O   O1306     1.0  0.3125  0.6562499999999998  0.28125000000000006  1.0000
  O   O1307     1.0  0.3125  0.7187499999999999  0.28125000000000006  1.0000
  O   O1308     1.0  0.3125  0.7812499999999999  0.28125000000000006  1.0000
  O   O1309     1.0  0.3125  0.8437499999999998  0.28125000000000006  1.0000
  O   O1310     1.0  0.3125  0.9062499999999998  0.28125000000000006  1.0000
  O   O1311     1.0  0.3125  0.9687499999999998  0.28125000000000006  1.0000
  O   O1312     1.0  0.3125  0.031249999999999993  0.28125000000000006  1.0000
  O   O1313     1.0  0.34375  0.062499999999999986  0.25  1.0000
  O   O1314     1.0  0.34375  0.12499999999999997  0.25  1.0000
  O   O1315     1.0  0.34375  0.18749999999999997  0.25  1.0000
  O   O1316     1.0  0.34375  0.24999999999999994  0.25  1.0000
  O   O1317     1.0  0.34375  0.3124999999999999  0.25  1.0000
  O   O1318     1.0  0.34375  0.3749999999999999  0.25  1.0000
  O   O1319     1.0  0.34375  0.4374999999999999  0.25  1.0000
  O   O1320     1.0  0.34375  0.49999999999999983  0.25  1.0000
  O   O1321     1.0  0.34375  0.5625  0.25  1.0000
  O   O1322     1.0  0.34375  0.625  0.25  1.0000
  O   O1323     1.0  0.34375  0.6875  0.25  1.0000
  O   O1324     1.0  0.34375  0.7499999999999999  0.25  1.0000
  O   O1325     1.0  0.34375  0.8124999999999998  0.25  1.0000
  O   O1326     1.0  0.34375  0.8749999999999998  0.25  1.0000
  O   O1327     1.0  0.34375  0.9374999999999998  0.25  1.0000
  O   O1328     1.0  0.34375  0.0  0.25  1.0000
  O   O1329     1.0  0.375  0.09374999999999999  0.21875000000000006  1.0000
  O   O1330     1.0  0.375  0.15625  0.21875000000000006  1.0000
  O   O1331     1.0  0.375  0.21874999999999994  0.21875000000000006  1.0000
  O   O1332     1.0  0.375  0.28125  0.21875000000000006  1.0000
  O   O1333     1.0  0.375  0.34375  0.21875000000000006  1.0000
  O   O1334     1.0  0.375  0.4062499999999999  0.21875000000000006  1.0000
  O   O1335     1.0  0.375  0.4687499999999999  0.21875000000000006  1.0000
  O   O1336     1.0  0.375  0.5312499999999999  0.21875000000000006  1.0000
  O   O1337     1.0  0.375  0.5937499999999998  0.21875000000000006  1.0000
  O   O1338     1.0  0.375  0.6562499999999998  0.21875000000000006  1.0000
  O   O1339     1.0  0.375  0.7187499999999999  0.21875000000000006  1.0000
  O   O1340     1.0  0.375  0.7812499999999999  0.21875000000000006  1.0000
  O   O1341     1.0  0.375  0.8437499999999998  0.21875000000000006  1.0000
  O   O1342     1.0  0.375  0.9062499999999998  0.21875000000000006  1.0000
  O   O1343     1.0  0.375  0.9687499999999998  0.21875000000000006  1.0000
  O   O1344     1.0  0.375  0.031249999999999993  0.21875000000000006  1.0000
  O   O1345     1.0  0.4062499999999999  0.062499999999999986  0.18750000000000006  1.0000
  O   O1346     1.0  0.4062499999999999  0.12499999999999997  0.18750000000000006  1.0000
  O   O1347     1.0  0.4062499999999999  0.18749999999999997  0.18750000000000006  1.0000
  O   O1348     1.0  0.4062499999999999  0.24999999999999983  0.18750000000000006  1.0000
  O   O1349     1.0  0.4062499999999999  0.3124999999999999  0.18750000000000006  1.0000
  O   O1350     1.0  0.4062499999999999  0.37499999999999994  0.18750000000000006  1.0000
  O   O1351     1.0  0.4062499999999999  0.4374999999999999  0.18750000000000006  1.0000
  O   O1352     1.0  0.4062499999999999  0.4999999999999999  0.18750000000000006  1.0000
  O   O1353     1.0  0.4062499999999999  0.5625  0.18750000000000006  1.0000
  O   O1354     1.0  0.4062499999999999  0.625  0.18750000000000006  1.0000
  O   O1355     1.0  0.4062499999999999  0.6875  0.18750000000000006  1.0000
  O   O1356     1.0  0.4062499999999999  0.7500000000000001  0.18750000000000006  1.0000
  O   O1357     1.0  0.4062499999999999  0.8124999999999998  0.18750000000000006  1.0000
  O   O1358     1.0  0.4062499999999999  0.8749999999999998  0.18750000000000006  1.0000
  O   O1359     1.0  0.4062499999999999  0.9374999999999998  0.18750000000000006  1.0000
  O   O1360     1.0  0.4062499999999999  0.0  0.18750000000000006  1.0000
  O   O1361     1.0  0.4374999999999999  0.09374999999999999  0.15625000000000003  1.0000
  O   O1362     1.0  0.4374999999999999  0.15625  0.15625000000000003  1.0000
  O   O1363     1.0  0.4374999999999999  0.21874999999999994  0.15625000000000003  1.0000
  O   O1364     1.0  0.4374999999999999  0.28125  0.15625000000000003  1.0000
  O   O1365     1.0  0.4374999999999999  0.3437499999999999  0.15625000000000003  1.0000
  O   O1366     1.0  0.4374999999999999  0.4062499999999999  0.15625000000000003  1.0000
  O   O1367     1.0  0.4374999999999999  0.4687499999999999  0.15625000000000003  1.0000
  O   O1368     1.0  0.4374999999999999  0.5312499999999999  0.15625000000000003  1.0000
  O   O1369     1.0  0.4374999999999999  0.5937499999999998  0.15625000000000003  1.0000
  O   O1370     1.0  0.4374999999999999  0.65625  0.15625000000000003  1.0000
  O   O1371     1.0  0.4374999999999999  0.7187499999999999  0.15625000000000003  1.0000
  O   O1372     1.0  0.4374999999999999  0.7812499999999999  0.15625000000000003  1.0000
  O   O1373     1.0  0.4374999999999999  0.8437499999999998  0.15625000000000003  1.0000
  O   O1374     1.0  0.4374999999999999  0.9062499999999998  0.15625000000000003  1.0000
  O   O1375     1.0  0.4374999999999999  0.9687499999999998  0.15625000000000003  1.0000
  O   O1376     1.0  0.4374999999999999  0.031249999999999993  0.15625000000000003  1.0000
  O   O1377     1.0  0.4687499999999999  0.062499999999999986  0.12500000000000006  1.0000
  O   O1378     1.0  0.4687499999999999  0.12499999999999997  0.12500000000000006  1.0000
  O   O1379     1.0  0.4687499999999999  0.18749999999999997  0.12500000000000006  1.0000
  O   O1380     1.0  0.4687499999999999  0.24999999999999983  0.12500000000000006  1.0000
  O   O1381     1.0  0.4687499999999999  0.3125  0.12500000000000006  1.0000
  O   O1382     1.0  0.4687499999999999  0.37499999999999994  0.12500000000000006  1.0000
  O   O1383     1.0  0.4687499999999999  0.4374999999999999  0.12500000000000006  1.0000
  O   O1384     1.0  0.4687499999999999  0.49999999999999983  0.12500000000000006  1.0000
  O   O1385     1.0  0.4687499999999999  0.5625  0.12500000000000006  1.0000
  O   O1386     1.0  0.4687499999999999  0.6249999999999998  0.12500000000000006  1.0000
  O   O1387     1.0  0.4687499999999999  0.6875  0.12500000000000006  1.0000
  O   O1388     1.0  0.4687499999999999  0.7500000000000001  0.12500000000000006  1.0000
  O   O1389     1.0  0.4687499999999999  0.8124999999999998  0.12500000000000006  1.0000
  O   O1390     1.0  0.4687499999999999  0.8749999999999998  0.12500000000000006  1.0000
  O   O1391     1.0  0.4687499999999999  0.9374999999999998  0.12500000000000006  1.0000
  O   O1392     1.0  0.4687499999999999  0.0  0.12500000000000006  1.0000
  O   O1393     1.0  0.49999999999999994  0.09374999999999999  0.09375000000000004  1.0000
  O   O1394     1.0  0.49999999999999994  0.15625  0.09375000000000004  1.0000
  O   O1395     1.0  0.49999999999999994  0.21874999999999994  0.09375000000000004  1.0000
  O   O1396     1.0  0.49999999999999994  0.28125  0.09375000000000004  1.0000
  O   O1397     1.0  0.49999999999999994  0.3437499999999999  0.09375000000000004  1.0000
  O   O1398     1.0  0.49999999999999994  0.4062499999999999  0.09375000000000004  1.0000
  O   O1399     1.0  0.49999999999999994  0.4687499999999999  0.09375000000000004  1.0000
  O   O1400     1.0  0.49999999999999994  0.5312499999999999  0.09375000000000004  1.0000
  O   O1401     1.0  0.49999999999999994  0.5937499999999998  0.09375000000000004  1.0000
  O   O1402     1.0  0.49999999999999994  0.65625  0.09375000000000004  1.0000
  O   O1403     1.0  0.49999999999999994  0.7187499999999999  0.09375000000000004  1.0000
  O   O1404     1.0  0.49999999999999994  0.7812499999999999  0.09375000000000004  1.0000
  O   O1405     1.0  0.49999999999999994  0.8437500000000001  0.09375000000000004  1.0000
  O   O1406     1.0  0.49999999999999994  0.9062499999999998  0.09375000000000004  1.0000
  O   O1407     1.0  0.49999999999999994  0.9687499999999998  0.09375000000000004  1.0000
  O   O1408     1.0  0.49999999999999994  0.031249999999999993  0.09375000000000004  1.0000
  O   O1409     1.0  0.5312499999999999  0.062499999999999986  0.06250000000000017  1.0000
  O   O1410     1.0  0.5312499999999999  0.12499999999999997  0.06250000000000017  1.0000
  O   O1411     1.0  0.5312499999999999  0.18749999999999997  0.06250000000000017  1.0000
  O   O1412     1.0  0.5312499999999999  0.24999999999999994  0.06250000000000017  1.0000
  O   O1413     1.0  0.5312499999999999  0.3125  0.06250000000000017  1.0000
  O   O1414     1.0  0.5312499999999999  0.37499999999999994  0.06250000000000017  1.0000
  O   O1415     1.0  0.5312499999999999  0.4374999999999999  0.06250000000000017  1.0000
  O   O1416     1.0  0.5312499999999999  0.49999999999999983  0.06250000000000017  1.0000
  O   O1417     1.0  0.5312499999999999  0.5624999999999998  0.06250000000000017  1.0000
  O   O1418     1.0  0.5312499999999999  0.6249999999999998  0.06250000000000017  1.0000
  O   O1419     1.0  0.5312499999999999  0.6875  0.06250000000000017  1.0000
  O   O1420     1.0  0.5312499999999999  0.7499999999999999  0.06250000000000017  1.0000
  O   O1421     1.0  0.5312499999999999  0.8124999999999998  0.06250000000000017  1.0000
  O   O1422     1.0  0.5312499999999999  0.8749999999999998  0.06250000000000017  1.0000
  O   O1423     1.0  0.5312499999999999  0.9374999999999998  0.06250000000000017  1.0000
  O   O1424     1.0  0.5312499999999999  0.0  0.06250000000000017  1.0000
  O   O1425     1.0  0.5624999999999999  0.09374999999999999  0.03125000000000017  1.0000
  O   O1426     1.0  0.5624999999999999  0.15625  0.03125000000000017  1.0000
  O   O1427     1.0  0.5624999999999999  0.21874999999999994  0.03125000000000017  1.0000
  O   O1428     1.0  0.5624999999999999  0.2812499999999999  0.03125000000000017  1.0000
  O   O1429     1.0  0.5624999999999999  0.3437499999999999  0.03125000000000017  1.0000
  O   O1430     1.0  0.5624999999999999  0.4062499999999999  0.03125000000000017  1.0000
  O   O1431     1.0  0.5624999999999999  0.4687499999999999  0.03125000000000017  1.0000
  O   O1432     1.0  0.5624999999999999  0.53125  0.03125000000000017  1.0000
  O   O1433     1.0  0.5624999999999999  0.59375  0.03125000000000017  1.0000
  O   O1434     1.0  0.5624999999999999  0.65625  0.03125000000000017  1.0000
  O   O1435     1.0  0.5624999999999999  0.7187499999999999  0.03125000000000017  1.0000
  O   O1436     1.0  0.5624999999999999  0.7812499999999999  0.03125000000000017  1.0000
  O   O1437     1.0  0.5624999999999999  0.8437500000000001  0.03125000000000017  1.0000
  O   O1438     1.0  0.5624999999999999  0.9062499999999998  0.03125000000000017  1.0000
  O   O1439     1.0  0.5624999999999999  0.9687499999999998  0.03125000000000017  1.0000
  O   O1440     1.0  0.5624999999999999  0.031249999999999993  0.03125000000000017  1.0000
  O   O1441     1.0  0.03125  0.062499999999999986  0.6250000000000001  1.0000
  O   O1442     1.0  0.03125  0.12499999999999997  0.6250000000000001  1.0000
  O   O1443     1.0  0.03125  0.18749999999999997  0.6250000000000001  1.0000
  O   O1444     1.0  0.03125  0.24999999999999994  0.6250000000000001  1.0000
  O   O1445     1.0  0.03125  0.3125  0.6250000000000001  1.0000
  O   O1446     1.0  0.03125  0.37499999999999994  0.6250000000000001  1.0000
  O   O1447     1.0  0.03125  0.4374999999999999  0.6250000000000001  1.0000
  O   O1448     1.0  0.03125  0.49999999999999983  0.6250000000000001  1.0000
  O   O1449     1.0  0.03125  0.5624999999999998  0.6250000000000001  1.0000
  O   O1450     1.0  0.03125  0.6249999999999998  0.6250000000000001  1.0000
  O   O1451     1.0  0.03125  0.6874999999999998  0.6250000000000001  1.0000
  O   O1452     1.0  0.03125  0.7499999999999999  0.6250000000000001  1.0000
  O   O1453     1.0  0.03125  0.8124999999999998  0.6250000000000001  1.0000
  O   O1454     1.0  0.03125  0.8749999999999998  0.6250000000000001  1.0000
  O   O1455     1.0  0.03125  0.9374999999999998  0.6250000000000001  1.0000
  O   O1456     1.0  0.03125  0.9999999999999999  0.6250000000000001  1.0000
  O   O1457     1.0  0.0625  0.09374999999999999  0.5937500000000001  1.0000
  O   O1458     1.0  0.0625  0.15625  0.5937500000000001  1.0000
  O   O1459     1.0  0.0625  0.21874999999999994  0.5937500000000001  1.0000
  O   O1460     1.0  0.0625  0.2812499999999999  0.5937500000000001  1.0000
  O   O1461     1.0  0.0625  0.3437499999999999  0.5937500000000001  1.0000
  O   O1462     1.0  0.0625  0.4062499999999999  0.5937500000000001  1.0000
  O   O1463     1.0  0.0625  0.4687499999999999  0.5937500000000001  1.0000
  O   O1464     1.0  0.0625  0.5312499999999999  0.5937500000000001  1.0000
  O   O1465     1.0  0.0625  0.59375  0.5937500000000001  1.0000
  O   O1466     1.0  0.0625  0.65625  0.5937500000000001  1.0000
  O   O1467     1.0  0.0625  0.7187499999999999  0.5937500000000001  1.0000
  O   O1468     1.0  0.0625  0.7812499999999999  0.5937500000000001  1.0000
  O   O1469     1.0  0.0625  0.8437499999999998  0.5937500000000001  1.0000
  O   O1470     1.0  0.0625  0.9062499999999998  0.5937500000000001  1.0000
  O   O1471     1.0  0.0625  0.9687499999999998  0.5937500000000001  1.0000
  O   O1472     1.0  0.0625  0.031249999999999993  0.5937500000000001  1.0000
  O   O1473     1.0  0.09375  0.062499999999999986  0.5625000000000001  1.0000
  O   O1474     1.0  0.09375  0.12499999999999997  0.5625000000000001  1.0000
  O   O1475     1.0  0.09375  0.18749999999999997  0.5625000000000001  1.0000
  O   O1476     1.0  0.09375  0.24999999999999994  0.5625000000000001  1.0000
  O   O1477     1.0  0.09375  0.3125  0.5625000000000001  1.0000
  O   O1478     1.0  0.09375  0.37499999999999994  0.5625000000000001  1.0000
  O   O1479     1.0  0.09375  0.4374999999999999  0.5625000000000001  1.0000
  O   O1480     1.0  0.09375  0.49999999999999983  0.5625000000000001  1.0000
  O   O1481     1.0  0.09375  0.5624999999999998  0.5625000000000001  1.0000
  O   O1482     1.0  0.09375  0.6249999999999998  0.5625000000000001  1.0000
  O   O1483     1.0  0.09375  0.6874999999999998  0.5625000000000001  1.0000
  O   O1484     1.0  0.09375  0.7499999999999999  0.5625000000000001  1.0000
  O   O1485     1.0  0.09375  0.8124999999999998  0.5625000000000001  1.0000
  O   O1486     1.0  0.09375  0.8749999999999998  0.5625000000000001  1.0000
  O   O1487     1.0  0.09375  0.9374999999999998  0.5625000000000001  1.0000
  O   O1488     1.0  0.09375  0.9999999999999999  0.5625000000000001  1.0000
  O   O1489     1.0  0.125  0.09374999999999999  0.53125  1.0000
  O   O1490     1.0  0.125  0.15625  0.53125  1.0000
  O   O1491     1.0  0.125  0.21874999999999994  0.53125  1.0000
  O   O1492     1.0  0.125  0.2812499999999999  0.53125  1.0000
  O   O1493     1.0  0.125  0.3437499999999999  0.53125  1.0000
  O   O1494     1.0  0.125  0.4062499999999999  0.53125  1.0000
  O   O1495     1.0  0.125  0.4687499999999999  0.53125  1.0000
  O   O1496     1.0  0.125  0.53125  0.53125  1.0000
  O   O1497     1.0  0.125  0.59375  0.53125  1.0000
  O   O1498     1.0  0.125  0.6562499999999998  0.53125  1.0000
  O   O1499     1.0  0.125  0.7187499999999999  0.53125  1.0000
  O   O1500     1.0  0.125  0.7812500000000001  0.53125  1.0000
  O   O1501     1.0  0.125  0.8437499999999998  0.53125  1.0000
  O   O1502     1.0  0.125  0.9062499999999998  0.53125  1.0000
  O   O1503     1.0  0.125  0.9687499999999998  0.53125  1.0000
  O   O1504     1.0  0.125  0.031249999999999993  0.53125  1.0000
  O   O1505     1.0  0.15625000000000006  0.062499999999999986  0.5  1.0000
  O   O1506     1.0  0.15625000000000006  0.12499999999999997  0.5  1.0000
  O   O1507     1.0  0.15625000000000006  0.18749999999999997  0.5  1.0000
  O   O1508     1.0  0.15625000000000006  0.24999999999999994  0.5  1.0000
  O   O1509     1.0  0.15625000000000006  0.3125  0.5  1.0000
  O   O1510     1.0  0.15625000000000006  0.3749999999999999  0.5  1.0000
  O   O1511     1.0  0.15625000000000006  0.4374999999999999  0.5  1.0000
  O   O1512     1.0  0.15625000000000006  0.49999999999999983  0.5  1.0000
  O   O1513     1.0  0.15625000000000006  0.5624999999999998  0.5  1.0000
  O   O1514     1.0  0.15625000000000006  0.6249999999999998  0.5  1.0000
  O   O1515     1.0  0.15625000000000006  0.6875  0.5  1.0000
  O   O1516     1.0  0.15625000000000006  0.7499999999999999  0.5  1.0000
  O   O1517     1.0  0.15625000000000006  0.8124999999999998  0.5  1.0000
  O   O1518     1.0  0.15625000000000006  0.8749999999999998  0.5  1.0000
  O   O1519     1.0  0.15625000000000006  0.9374999999999998  0.5  1.0000
  O   O1520     1.0  0.15625000000000006  0.0  0.5  1.0000
  O   O1521     1.0  0.1875  0.09374999999999999  0.4687499999999999  1.0000
  O   O1522     1.0  0.1875  0.15625  0.4687499999999999  1.0000
  O   O1523     1.0  0.1875  0.21874999999999994  0.4687499999999999  1.0000
  O   O1524     1.0  0.1875  0.2812499999999999  0.4687499999999999  1.0000
  O   O1525     1.0  0.1875  0.34375  0.4687499999999999  1.0000
  O   O1526     1.0  0.1875  0.4062499999999999  0.4687499999999999  1.0000
  O   O1527     1.0  0.1875  0.4687499999999999  0.4687499999999999  1.0000
  O   O1528     1.0  0.1875  0.53125  0.4687499999999999  1.0000
  O   O1529     1.0  0.1875  0.59375  0.4687499999999999  1.0000
  O   O1530     1.0  0.1875  0.6562499999999998  0.4687499999999999  1.0000
  O   O1531     1.0  0.1875  0.7187499999999999  0.4687499999999999  1.0000
  O   O1532     1.0  0.1875  0.7812499999999999  0.4687499999999999  1.0000
  O   O1533     1.0  0.1875  0.8437499999999998  0.4687499999999999  1.0000
  O   O1534     1.0  0.1875  0.9062499999999998  0.4687499999999999  1.0000
  O   O1535     1.0  0.1875  0.9687499999999998  0.4687499999999999  1.0000
  O   O1536     1.0  0.1875  0.031249999999999993  0.4687499999999999  1.0000
  O   O1537     1.0  0.2187499999999999  0.062499999999999986  0.4375000000000001  1.0000
  O   O1538     1.0  0.2187499999999999  0.12499999999999997  0.4375000000000001  1.0000
  O   O1539     1.0  0.2187499999999999  0.18749999999999997  0.4375000000000001  1.0000
  O   O1540     1.0  0.2187499999999999  0.24999999999999994  0.4375000000000001  1.0000
  O   O1541     1.0  0.2187499999999999  0.3124999999999999  0.4375000000000001  1.0000
  O   O1542     1.0  0.2187499999999999  0.3749999999999999  0.4375000000000001  1.0000
  O   O1543     1.0  0.2187499999999999  0.4374999999999999  0.4375000000000001  1.0000
  O   O1544     1.0  0.2187499999999999  0.49999999999999983  0.4375000000000001  1.0000
  O   O1545     1.0  0.2187499999999999  0.5624999999999998  0.4375000000000001  1.0000
  O   O1546     1.0  0.2187499999999999  0.6249999999999998  0.4375000000000001  1.0000
  O   O1547     1.0  0.2187499999999999  0.6875  0.4375000000000001  1.0000
  O   O1548     1.0  0.2187499999999999  0.7499999999999999  0.4375000000000001  1.0000
  O   O1549     1.0  0.2187499999999999  0.8124999999999998  0.4375000000000001  1.0000
  O   O1550     1.0  0.2187499999999999  0.8750000000000001  0.4375000000000001  1.0000
  O   O1551     1.0  0.2187499999999999  0.9374999999999998  0.4375000000000001  1.0000
  O   O1552     1.0  0.2187499999999999  0.0  0.4375000000000001  1.0000
  O   O1553     1.0  0.25  0.09374999999999999  0.40624999999999994  1.0000
  O   O1554     1.0  0.25  0.15625  0.40624999999999994  1.0000
  O   O1555     1.0  0.25  0.21874999999999994  0.40624999999999994  1.0000
  O   O1556     1.0  0.25  0.28125  0.40624999999999994  1.0000
  O   O1557     1.0  0.25  0.34375  0.40624999999999994  1.0000
  O   O1558     1.0  0.25  0.4062499999999999  0.40624999999999994  1.0000
  O   O1559     1.0  0.25  0.4687499999999999  0.40624999999999994  1.0000
  O   O1560     1.0  0.25  0.53125  0.40624999999999994  1.0000
  O   O1561     1.0  0.25  0.5937499999999998  0.40624999999999994  1.0000
  O   O1562     1.0  0.25  0.6562499999999998  0.40624999999999994  1.0000
  O   O1563     1.0  0.25  0.7187499999999999  0.40624999999999994  1.0000
  O   O1564     1.0  0.25  0.7812499999999999  0.40624999999999994  1.0000
  O   O1565     1.0  0.25  0.8437499999999998  0.40624999999999994  1.0000
  O   O1566     1.0  0.25  0.9062499999999998  0.40624999999999994  1.0000
  O   O1567     1.0  0.25  0.9687499999999998  0.40624999999999994  1.0000
  O   O1568     1.0  0.25  0.031249999999999993  0.40624999999999994  1.0000
  O   O1569     1.0  0.28125  0.062499999999999986  0.37499999999999994  1.0000
  O   O1570     1.0  0.28125  0.12499999999999997  0.37499999999999994  1.0000
  O   O1571     1.0  0.28125  0.18749999999999997  0.37499999999999994  1.0000
  O   O1572     1.0  0.28125  0.24999999999999994  0.37499999999999994  1.0000
  O   O1573     1.0  0.28125  0.3124999999999999  0.37499999999999994  1.0000
  O   O1574     1.0  0.28125  0.3749999999999999  0.37499999999999994  1.0000
  O   O1575     1.0  0.28125  0.4374999999999999  0.37499999999999994  1.0000
  O   O1576     1.0  0.28125  0.49999999999999983  0.37499999999999994  1.0000
  O   O1577     1.0  0.28125  0.5625  0.37499999999999994  1.0000
  O   O1578     1.0  0.28125  0.625  0.37499999999999994  1.0000
  O   O1579     1.0  0.28125  0.6875  0.37499999999999994  1.0000
  O   O1580     1.0  0.28125  0.7499999999999999  0.37499999999999994  1.0000
  O   O1581     1.0  0.28125  0.8124999999999998  0.37499999999999994  1.0000
  O   O1582     1.0  0.28125  0.8750000000000001  0.37499999999999994  1.0000
  O   O1583     1.0  0.28125  0.9374999999999998  0.37499999999999994  1.0000
  O   O1584     1.0  0.28125  0.0  0.37499999999999994  1.0000
  O   O1585     1.0  0.3125  0.09374999999999999  0.34375000000000006  1.0000
  O   O1586     1.0  0.3125  0.15625  0.34375000000000006  1.0000
  O   O1587     1.0  0.3125  0.21874999999999994  0.34375000000000006  1.0000
  O   O1588     1.0  0.3125  0.28125  0.34375000000000006  1.0000
  O   O1589     1.0  0.3125  0.34375  0.34375000000000006  1.0000
  O   O1590     1.0  0.3125  0.4062499999999999  0.34375000000000006  1.0000
  O   O1591     1.0  0.3125  0.4687499999999999  0.34375000000000006  1.0000
  O   O1592     1.0  0.3125  0.5312499999999999  0.34375000000000006  1.0000
  O   O1593     1.0  0.3125  0.5937499999999998  0.34375000000000006  1.0000
  O   O1594     1.0  0.3125  0.6562499999999998  0.34375000000000006  1.0000
  O   O1595     1.0  0.3125  0.7187499999999999  0.34375000000000006  1.0000
  O   O1596     1.0  0.3125  0.7812499999999999  0.34375000000000006  1.0000
  O   O1597     1.0  0.3125  0.8437499999999998  0.34375000000000006  1.0000
  O   O1598     1.0  0.3125  0.9062499999999998  0.34375000000000006  1.0000
  O   O1599     1.0  0.3125  0.9687499999999998  0.34375000000000006  1.0000
  O   O1600     1.0  0.3125  0.031249999999999993  0.34375000000000006  1.0000
  O   O1601     1.0  0.34375  0.062499999999999986  0.31250000000000006  1.0000
  O   O1602     1.0  0.34375  0.12499999999999997  0.31250000000000006  1.0000
  O   O1603     1.0  0.34375  0.18749999999999997  0.31250000000000006  1.0000
  O   O1604     1.0  0.34375  0.24999999999999994  0.31250000000000006  1.0000
  O   O1605     1.0  0.34375  0.3124999999999999  0.31250000000000006  1.0000
  O   O1606     1.0  0.34375  0.3749999999999999  0.31250000000000006  1.0000
  O   O1607     1.0  0.34375  0.4374999999999999  0.31250000000000006  1.0000
  O   O1608     1.0  0.34375  0.49999999999999983  0.31250000000000006  1.0000
  O   O1609     1.0  0.34375  0.5625  0.31250000000000006  1.0000
  O   O1610     1.0  0.34375  0.625  0.31250000000000006  1.0000
  O   O1611     1.0  0.34375  0.6875  0.31250000000000006  1.0000
  O   O1612     1.0  0.34375  0.7499999999999999  0.31250000000000006  1.0000
  O   O1613     1.0  0.34375  0.8124999999999998  0.31250000000000006  1.0000
  O   O1614     1.0  0.34375  0.8749999999999998  0.31250000000000006  1.0000
  O   O1615     1.0  0.34375  0.9374999999999998  0.31250000000000006  1.0000
  O   O1616     1.0  0.34375  0.0  0.31250000000000006  1.0000
  O   O1617     1.0  0.3749999999999999  0.09374999999999999  0.28125000000000006  1.0000
  O   O1618     1.0  0.3749999999999999  0.15625  0.28125000000000006  1.0000
  O   O1619     1.0  0.3749999999999999  0.21874999999999994  0.28125000000000006  1.0000
  O   O1620     1.0  0.3749999999999999  0.28125  0.28125000000000006  1.0000
  O   O1621     1.0  0.3749999999999999  0.34375  0.28125000000000006  1.0000
  O   O1622     1.0  0.3749999999999999  0.4062499999999999  0.28125000000000006  1.0000
  O   O1623     1.0  0.3749999999999999  0.4687499999999999  0.28125000000000006  1.0000
  O   O1624     1.0  0.3749999999999999  0.5312499999999999  0.28125000000000006  1.0000
  O   O1625     1.0  0.3749999999999999  0.5937499999999998  0.28125000000000006  1.0000
  O   O1626     1.0  0.3749999999999999  0.6562499999999998  0.28125000000000006  1.0000
  O   O1627     1.0  0.3749999999999999  0.7187499999999999  0.28125000000000006  1.0000
  O   O1628     1.0  0.3749999999999999  0.7812499999999999  0.28125000000000006  1.0000
  O   O1629     1.0  0.3749999999999999  0.8437499999999998  0.28125000000000006  1.0000
  O   O1630     1.0  0.3749999999999999  0.9062499999999998  0.28125000000000006  1.0000
  O   O1631     1.0  0.3749999999999999  0.9687499999999998  0.28125000000000006  1.0000
  O   O1632     1.0  0.3749999999999999  0.031249999999999993  0.28125000000000006  1.0000
  O   O1633     1.0  0.4062499999999999  0.062499999999999986  0.25  1.0000
  O   O1634     1.0  0.4062499999999999  0.12499999999999997  0.25  1.0000
  O   O1635     1.0  0.4062499999999999  0.18749999999999997  0.25  1.0000
  O   O1636     1.0  0.4062499999999999  0.24999999999999983  0.25  1.0000
  O   O1637     1.0  0.4062499999999999  0.3124999999999999  0.25  1.0000
  O   O1638     1.0  0.4062499999999999  0.37499999999999994  0.25  1.0000
  O   O1639     1.0  0.4062499999999999  0.4374999999999999  0.25  1.0000
  O   O1640     1.0  0.4062499999999999  0.4999999999999999  0.25  1.0000
  O   O1641     1.0  0.4062499999999999  0.5625  0.25  1.0000
  O   O1642     1.0  0.4062499999999999  0.625  0.25  1.0000
  O   O1643     1.0  0.4062499999999999  0.6875  0.25  1.0000
  O   O1644     1.0  0.4062499999999999  0.7500000000000001  0.25  1.0000
  O   O1645     1.0  0.4062499999999999  0.8124999999999998  0.25  1.0000
  O   O1646     1.0  0.4062499999999999  0.8749999999999998  0.25  1.0000
  O   O1647     1.0  0.4062499999999999  0.9374999999999998  0.25  1.0000
  O   O1648     1.0  0.4062499999999999  0.0  0.25  1.0000
  O   O1649     1.0  0.4374999999999999  0.09374999999999999  0.21875000000000006  1.0000
  O   O1650     1.0  0.4374999999999999  0.15625  0.21875000000000006  1.0000
  O   O1651     1.0  0.4374999999999999  0.21874999999999994  0.21875000000000006  1.0000
  O   O1652     1.0  0.4374999999999999  0.28125  0.21875000000000006  1.0000
  O   O1653     1.0  0.4374999999999999  0.3437499999999999  0.21875000000000006  1.0000
  O   O1654     1.0  0.4374999999999999  0.4062499999999999  0.21875000000000006  1.0000
  O   O1655     1.0  0.4374999999999999  0.4687499999999999  0.21875000000000006  1.0000
  O   O1656     1.0  0.4374999999999999  0.5312499999999999  0.21875000000000006  1.0000
  O   O1657     1.0  0.4374999999999999  0.5937499999999998  0.21875000000000006  1.0000
  O   O1658     1.0  0.4374999999999999  0.65625  0.21875000000000006  1.0000
  O   O1659     1.0  0.4374999999999999  0.7187499999999999  0.21875000000000006  1.0000
  O   O1660     1.0  0.4374999999999999  0.7812499999999999  0.21875000000000006  1.0000
  O   O1661     1.0  0.4374999999999999  0.8437499999999998  0.21875000000000006  1.0000
  O   O1662     1.0  0.4374999999999999  0.9062499999999998  0.21875000000000006  1.0000
  O   O1663     1.0  0.4374999999999999  0.9687499999999998  0.21875000000000006  1.0000
  O   O1664     1.0  0.4374999999999999  0.031249999999999993  0.21875000000000006  1.0000
  O   O1665     1.0  0.4687499999999999  0.062499999999999986  0.18750000000000006  1.0000
  O   O1666     1.0  0.4687499999999999  0.12499999999999997  0.18750000000000006  1.0000
  O   O1667     1.0  0.4687499999999999  0.18749999999999997  0.18750000000000006  1.0000
  O   O1668     1.0  0.4687499999999999  0.24999999999999983  0.18750000000000006  1.0000
  O   O1669     1.0  0.4687499999999999  0.3125  0.18750000000000006  1.0000
  O   O1670     1.0  0.4687499999999999  0.37499999999999994  0.18750000000000006  1.0000
  O   O1671     1.0  0.4687499999999999  0.4374999999999999  0.18750000000000006  1.0000
  O   O1672     1.0  0.4687499999999999  0.49999999999999983  0.18750000000000006  1.0000
  O   O1673     1.0  0.4687499999999999  0.5625  0.18750000000000006  1.0000
  O   O1674     1.0  0.4687499999999999  0.6249999999999998  0.18750000000000006  1.0000
  O   O1675     1.0  0.4687499999999999  0.6875  0.18750000000000006  1.0000
  O   O1676     1.0  0.4687499999999999  0.7500000000000001  0.18750000000000006  1.0000
  O   O1677     1.0  0.4687499999999999  0.8124999999999998  0.18750000000000006  1.0000
  O   O1678     1.0  0.4687499999999999  0.8749999999999998  0.18750000000000006  1.0000
  O   O1679     1.0  0.4687499999999999  0.9374999999999998  0.18750000000000006  1.0000
  O   O1680     1.0  0.4687499999999999  0.0  0.18750000000000006  1.0000
  O   O1681     1.0  0.49999999999999994  0.09374999999999999  0.15625000000000003  1.0000
  O   O1682     1.0  0.49999999999999994  0.15625  0.15625000000000003  1.0000
  O   O1683     1.0  0.49999999999999994  0.21874999999999994  0.15625000000000003  1.0000
  O   O1684     1.0  0.49999999999999994  0.28125  0.15625000000000003  1.0000
  O   O1685     1.0  0.49999999999999994  0.3437499999999999  0.15625000000000003  1.0000
  O   O1686     1.0  0.49999999999999994  0.4062499999999999  0.15625000000000003  1.0000
  O   O1687     1.0  0.49999999999999994  0.4687499999999999  0.15625000000000003  1.0000
  O   O1688     1.0  0.49999999999999994  0.5312499999999999  0.15625000000000003  1.0000
  O   O1689     1.0  0.49999999999999994  0.5937499999999998  0.15625000000000003  1.0000
  O   O1690     1.0  0.49999999999999994  0.65625  0.15625000000000003  1.0000
  O   O1691     1.0  0.49999999999999994  0.7187499999999999  0.15625000000000003  1.0000
  O   O1692     1.0  0.49999999999999994  0.7812499999999999  0.15625000000000003  1.0000
  O   O1693     1.0  0.49999999999999994  0.8437500000000001  0.15625000000000003  1.0000
  O   O1694     1.0  0.49999999999999994  0.9062499999999998  0.15625000000000003  1.0000
  O   O1695     1.0  0.49999999999999994  0.9687499999999998  0.15625000000000003  1.0000
  O   O1696     1.0  0.49999999999999994  0.031249999999999993  0.15625000000000003  1.0000
  O   O1697     1.0  0.53125  0.062499999999999986  0.12500000000000006  1.0000
  O   O1698     1.0  0.53125  0.12499999999999997  0.12500000000000006  1.0000
  O   O1699     1.0  0.53125  0.18749999999999997  0.12500000000000006  1.0000
  O   O1700     1.0  0.53125  0.24999999999999994  0.12500000000000006  1.0000
  O   O1701     1.0  0.53125  0.3125  0.12500000000000006  1.0000
  O   O1702     1.0  0.53125  0.37499999999999994  0.12500000000000006  1.0000
  O   O1703     1.0  0.53125  0.4374999999999999  0.12500000000000006  1.0000
  O   O1704     1.0  0.53125  0.49999999999999983  0.12500000000000006  1.0000
  O   O1705     1.0  0.53125  0.5624999999999998  0.12500000000000006  1.0000
  O   O1706     1.0  0.53125  0.6249999999999998  0.12500000000000006  1.0000
  O   O1707     1.0  0.53125  0.6875  0.12500000000000006  1.0000
  O   O1708     1.0  0.53125  0.7499999999999999  0.12500000000000006  1.0000
  O   O1709     1.0  0.53125  0.8124999999999998  0.12500000000000006  1.0000
  O   O1710     1.0  0.53125  0.8749999999999998  0.12500000000000006  1.0000
  O   O1711     1.0  0.53125  0.9374999999999998  0.12500000000000006  1.0000
  O   O1712     1.0  0.53125  0.0  0.12500000000000006  1.0000
  O   O1713     1.0  0.5624999999999999  0.09374999999999999  0.09375000000000004  1.0000
  O   O1714     1.0  0.5624999999999999  0.15625  0.09375000000000004  1.0000
  O   O1715     1.0  0.5624999999999999  0.21874999999999994  0.09375000000000004  1.0000
  O   O1716     1.0  0.5624999999999999  0.2812499999999999  0.09375000000000004  1.0000
  O   O1717     1.0  0.5624999999999999  0.3437499999999999  0.09375000000000004  1.0000
  O   O1718     1.0  0.5624999999999999  0.4062499999999999  0.09375000000000004  1.0000
  O   O1719     1.0  0.5624999999999999  0.4687499999999999  0.09375000000000004  1.0000
  O   O1720     1.0  0.5624999999999999  0.53125  0.09375000000000004  1.0000
  O   O1721     1.0  0.5624999999999999  0.59375  0.09375000000000004  1.0000
  O   O1722     1.0  0.5624999999999999  0.65625  0.09375000000000004  1.0000
  O   O1723     1.0  0.5624999999999999  0.7187499999999999  0.09375000000000004  1.0000
  O   O1724     1.0  0.5624999999999999  0.7812499999999999  0.09375000000000004  1.0000
  O   O1725     1.0  0.5624999999999999  0.8437500000000001  0.09375000000000004  1.0000
  O   O1726     1.0  0.5624999999999999  0.9062499999999998  0.09375000000000004  1.0000
  O   O1727     1.0  0.5624999999999999  0.9687499999999998  0.09375000000000004  1.0000
  O   O1728     1.0  0.5624999999999999  0.031249999999999993  0.09375000000000004  1.0000
  O   O1729     1.0  0.5937499999999999  0.062499999999999986  0.06250000000000017  1.0000
  O   O1730     1.0  0.5937499999999999  0.12499999999999997  0.06250000000000017  1.0000
  O   O1731     1.0  0.5937499999999999  0.18749999999999997  0.06250000000000017  1.0000
  O   O1732     1.0  0.5937499999999999  0.24999999999999994  0.06250000000000017  1.0000
  O   O1733     1.0  0.5937499999999999  0.3125  0.06250000000000017  1.0000
  O   O1734     1.0  0.5937499999999999  0.37499999999999994  0.06250000000000017  1.0000
  O   O1735     1.0  0.5937499999999999  0.4374999999999999  0.06250000000000017  1.0000
  O   O1736     1.0  0.5937499999999999  0.49999999999999983  0.06250000000000017  1.0000
  O   O1737     1.0  0.5937499999999999  0.5624999999999998  0.06250000000000017  1.0000
  O   O1738     1.0  0.5937499999999999  0.6249999999999998  0.06250000000000017  1.0000
  O   O1739     1.0  0.5937499999999999  0.6875  0.06250000000000017  1.0000
  O   O1740     1.0  0.5937499999999999  0.7499999999999999  0.06250000000000017  1.0000
  O   O1741     1.0  0.5937499999999999  0.8124999999999998  0.06250000000000017  1.0000
  O   O1742     1.0  0.5937499999999999  0.8749999999999998  0.06250000000000017  1.0000
  O   O1743     1.0  0.5937499999999999  0.9374999999999998  0.06250000000000017  1.0000
  O   O1744     1.0  0.5937499999999999  0.0  0.06250000000000017  1.0000
  O   O1745     1.0  0.6250000000000001  0.09374999999999999  0.03125000000000017  1.0000
  O   O1746     1.0  0.6250000000000001  0.15625  0.03125000000000017  1.0000
  O   O1747     1.0  0.6250000000000001  0.21874999999999994  0.03125000000000017  1.0000
  O   O1748     1.0  0.6250000000000001  0.2812499999999999  0.03125000000000017  1.0000
  O   O1749     1.0  0.6250000000000001  0.3437499999999999  0.03125000000000017  1.0000
  O   O1750     1.0  0.6250000000000001  0.4062499999999999  0.03125000000000017  1.0000
  O   O1751     1.0  0.6250000000000001  0.4687499999999999  0.03125000000000017  1.0000
  O   O1752     1.0  0.6250000000000001  0.53125  0.03125000000000017  1.0000
  O   O1753     1.0  0.6250000000000001  0.59375  0.03125000000000017  1.0000
  O   O1754     1.0  0.6250000000000001  0.6562499999999998  0.03125000000000017  1.0000
  O   O1755     1.0  0.6250000000000001  0.7187499999999999  0.03125000000000017  1.0000
  O   O1756     1.0  0.6250000000000001  0.7812499999999999  0.03125000000000017  1.0000
  O   O1757     1.0  0.6250000000000001  0.8437499999999998  0.03125000000000017  1.0000
  O   O1758     1.0  0.6250000000000001  0.9062499999999998  0.03125000000000017  1.0000
  O   O1759     1.0  0.6250000000000001  0.9687499999999998  0.03125000000000017  1.0000
  O   O1760     1.0  0.6250000000000001  0.031249999999999993  0.03125000000000017  1.0000
  O   O1761     1.0  0.03125  0.062499999999999986  0.6875000000000001  1.0000
  O   O1762     1.0  0.03125  0.12499999999999997  0.6875000000000001  1.0000
  O   O1763     1.0  0.03125  0.18749999999999997  0.6875000000000001  1.0000
  O   O1764     1.0  0.03125  0.24999999999999994  0.6875000000000001  1.0000
  O   O1765     1.0  0.03125  0.3125  0.6875000000000001  1.0000
  O   O1766     1.0  0.03125  0.37499999999999994  0.6875000000000001  1.0000
  O   O1767     1.0  0.03125  0.4374999999999999  0.6875000000000001  1.0000
  O   O1768     1.0  0.03125  0.49999999999999983  0.6875000000000001  1.0000
  O   O1769     1.0  0.03125  0.5624999999999998  0.6875000000000001  1.0000
  O   O1770     1.0  0.03125  0.6249999999999998  0.6875000000000001  1.0000
  O   O1771     1.0  0.03125  0.6874999999999998  0.6875000000000001  1.0000
  O   O1772     1.0  0.03125  0.7499999999999999  0.6875000000000001  1.0000
  O   O1773     1.0  0.03125  0.8124999999999998  0.6875000000000001  1.0000
  O   O1774     1.0  0.03125  0.8749999999999998  0.6875000000000001  1.0000
  O   O1775     1.0  0.03125  0.9374999999999998  0.6875000000000001  1.0000
  O   O1776     1.0  0.03125  0.9999999999999999  0.6875000000000001  1.0000
  O   O1777     1.0  0.0625  0.09374999999999999  0.6562500000000001  1.0000
  O   O1778     1.0  0.0625  0.15625  0.6562500000000001  1.0000
  O   O1779     1.0  0.0625  0.21874999999999994  0.6562500000000001  1.0000
  O   O1780     1.0  0.0625  0.2812499999999999  0.6562500000000001  1.0000
  O   O1781     1.0  0.0625  0.3437499999999999  0.6562500000000001  1.0000
  O   O1782     1.0  0.0625  0.4062499999999999  0.6562500000000001  1.0000
  O   O1783     1.0  0.0625  0.4687499999999999  0.6562500000000001  1.0000
  O   O1784     1.0  0.0625  0.5312499999999999  0.6562500000000001  1.0000
  O   O1785     1.0  0.0625  0.59375  0.6562500000000001  1.0000
  O   O1786     1.0  0.0625  0.65625  0.6562500000000001  1.0000
  O   O1787     1.0  0.0625  0.7187499999999999  0.6562500000000001  1.0000
  O   O1788     1.0  0.0625  0.7812499999999999  0.6562500000000001  1.0000
  O   O1789     1.0  0.0625  0.8437499999999998  0.6562500000000001  1.0000
  O   O1790     1.0  0.0625  0.9062499999999998  0.6562500000000001  1.0000
  O   O1791     1.0  0.0625  0.9687499999999998  0.6562500000000001  1.0000
  O   O1792     1.0  0.0625  0.031249999999999993  0.6562500000000001  1.0000
  O   O1793     1.0  0.09375  0.062499999999999986  0.6250000000000001  1.0000
  O   O1794     1.0  0.09375  0.12499999999999997  0.6250000000000001  1.0000
  O   O1795     1.0  0.09375  0.18749999999999997  0.6250000000000001  1.0000
  O   O1796     1.0  0.09375  0.24999999999999994  0.6250000000000001  1.0000
  O   O1797     1.0  0.09375  0.3125  0.6250000000000001  1.0000
  O   O1798     1.0  0.09375  0.37499999999999994  0.6250000000000001  1.0000
  O   O1799     1.0  0.09375  0.4374999999999999  0.6250000000000001  1.0000
  O   O1800     1.0  0.09375  0.49999999999999983  0.6250000000000001  1.0000
  O   O1801     1.0  0.09375  0.5624999999999998  0.6250000000000001  1.0000
  O   O1802     1.0  0.09375  0.6249999999999998  0.6250000000000001  1.0000
  O   O1803     1.0  0.09375  0.6874999999999998  0.6250000000000001  1.0000
  O   O1804     1.0  0.09375  0.7499999999999999  0.6250000000000001  1.0000
  O   O1805     1.0  0.09375  0.8124999999999998  0.6250000000000001  1.0000
  O   O1806     1.0  0.09375  0.8749999999999998  0.6250000000000001  1.0000
  O   O1807     1.0  0.09375  0.9374999999999998  0.6250000000000001  1.0000
  O   O1808     1.0  0.09375  0.9999999999999999  0.6250000000000001  1.0000
  O   O1809     1.0  0.125  0.09374999999999999  0.5937500000000001  1.0000
  O   O1810     1.0  0.125  0.15625  0.5937500000000001  1.0000
  O   O1811     1.0  0.125  0.21874999999999994  0.5937500000000001  1.0000
  O   O1812     1.0  0.125  0.2812499999999999  0.5937500000000001  1.0000
  O   O1813     1.0  0.125  0.3437499999999999  0.5937500000000001  1.0000
  O   O1814     1.0  0.125  0.4062499999999999  0.5937500000000001  1.0000
  O   O1815     1.0  0.125  0.4687499999999999  0.5937500000000001  1.0000
  O   O1816     1.0  0.125  0.53125  0.5937500000000001  1.0000
  O   O1817     1.0  0.125  0.59375  0.5937500000000001  1.0000
  O   O1818     1.0  0.125  0.6562499999999998  0.5937500000000001  1.0000
  O   O1819     1.0  0.125  0.7187499999999999  0.5937500000000001  1.0000
  O   O1820     1.0  0.125  0.7812500000000001  0.5937500000000001  1.0000
  O   O1821     1.0  0.125  0.8437499999999998  0.5937500000000001  1.0000
  O   O1822     1.0  0.125  0.9062499999999998  0.5937500000000001  1.0000
  O   O1823     1.0  0.125  0.9687499999999998  0.5937500000000001  1.0000
  O   O1824     1.0  0.125  0.031249999999999993  0.5937500000000001  1.0000
  O   O1825     1.0  0.15624999999999994  0.062499999999999986  0.5625000000000001  1.0000
  O   O1826     1.0  0.15624999999999994  0.12499999999999997  0.5625000000000001  1.0000
  O   O1827     1.0  0.15624999999999994  0.18749999999999997  0.5625000000000001  1.0000
  O   O1828     1.0  0.15624999999999994  0.24999999999999994  0.5625000000000001  1.0000
  O   O1829     1.0  0.15624999999999994  0.3125  0.5625000000000001  1.0000
  O   O1830     1.0  0.15624999999999994  0.3749999999999999  0.5625000000000001  1.0000
  O   O1831     1.0  0.15624999999999994  0.4374999999999999  0.5625000000000001  1.0000
  O   O1832     1.0  0.15624999999999994  0.49999999999999983  0.5625000000000001  1.0000
  O   O1833     1.0  0.15624999999999994  0.5624999999999998  0.5625000000000001  1.0000
  O   O1834     1.0  0.15624999999999994  0.6249999999999998  0.5625000000000001  1.0000
  O   O1835     1.0  0.15624999999999994  0.6875  0.5625000000000001  1.0000
  O   O1836     1.0  0.15624999999999994  0.7499999999999999  0.5625000000000001  1.0000
  O   O1837     1.0  0.15624999999999994  0.8124999999999998  0.5625000000000001  1.0000
  O   O1838     1.0  0.15624999999999994  0.8749999999999998  0.5625000000000001  1.0000
  O   O1839     1.0  0.15624999999999994  0.9374999999999998  0.5625000000000001  1.0000
  O   O1840     1.0  0.15624999999999994  0.0  0.5625000000000001  1.0000
  O   O1841     1.0  0.1875  0.09374999999999999  0.53125  1.0000
  O   O1842     1.0  0.1875  0.15625  0.53125  1.0000
  O   O1843     1.0  0.1875  0.21874999999999994  0.53125  1.0000
  O   O1844     1.0  0.1875  0.2812499999999999  0.53125  1.0000
  O   O1845     1.0  0.1875  0.34375  0.53125  1.0000
  O   O1846     1.0  0.1875  0.4062499999999999  0.53125  1.0000
  O   O1847     1.0  0.1875  0.4687499999999999  0.53125  1.0000
  O   O1848     1.0  0.1875  0.53125  0.53125  1.0000
  O   O1849     1.0  0.1875  0.59375  0.53125  1.0000
  O   O1850     1.0  0.1875  0.6562499999999998  0.53125  1.0000
  O   O1851     1.0  0.1875  0.7187499999999999  0.53125  1.0000
  O   O1852     1.0  0.1875  0.7812499999999999  0.53125  1.0000
  O   O1853     1.0  0.1875  0.8437499999999998  0.53125  1.0000
  O   O1854     1.0  0.1875  0.9062499999999998  0.53125  1.0000
  O   O1855     1.0  0.1875  0.9687499999999998  0.53125  1.0000
  O   O1856     1.0  0.1875  0.031249999999999993  0.53125  1.0000
  O   O1857     1.0  0.21875  0.062499999999999986  0.5  1.0000
  O   O1858     1.0  0.21875  0.12499999999999997  0.5  1.0000
  O   O1859     1.0  0.21875  0.18749999999999997  0.5  1.0000
  O   O1860     1.0  0.21875  0.24999999999999994  0.5  1.0000
  O   O1861     1.0  0.21875  0.3124999999999999  0.5  1.0000
  O   O1862     1.0  0.21875  0.3749999999999999  0.5  1.0000
  O   O1863     1.0  0.21875  0.4374999999999999  0.5  1.0000
  O   O1864     1.0  0.21875  0.49999999999999983  0.5  1.0000
  O   O1865     1.0  0.21875  0.5624999999999998  0.5  1.0000
  O   O1866     1.0  0.21875  0.6249999999999998  0.5  1.0000
  O   O1867     1.0  0.21875  0.6875  0.5  1.0000
  O   O1868     1.0  0.21875  0.7499999999999999  0.5  1.0000
  O   O1869     1.0  0.21875  0.8124999999999998  0.5  1.0000
  O   O1870     1.0  0.21875  0.8750000000000001  0.5  1.0000
  O   O1871     1.0  0.21875  0.9374999999999998  0.5  1.0000
  O   O1872     1.0  0.21875  0.0  0.5  1.0000
  O   O1873     1.0  0.24999999999999992  0.09374999999999999  0.4687499999999999  1.0000
  O   O1874     1.0  0.24999999999999992  0.15625  0.4687499999999999  1.0000
  O   O1875     1.0  0.24999999999999992  0.21874999999999994  0.4687499999999999  1.0000
  O   O1876     1.0  0.24999999999999992  0.28125  0.4687499999999999  1.0000
  O   O1877     1.0  0.24999999999999992  0.34375  0.4687499999999999  1.0000
  O   O1878     1.0  0.24999999999999992  0.4062499999999999  0.4687499999999999  1.0000
  O   O1879     1.0  0.24999999999999992  0.4687499999999999  0.4687499999999999  1.0000
  O   O1880     1.0  0.24999999999999992  0.53125  0.4687499999999999  1.0000
  O   O1881     1.0  0.24999999999999992  0.5937499999999998  0.4687499999999999  1.0000
  O   O1882     1.0  0.24999999999999992  0.6562499999999998  0.4687499999999999  1.0000
  O   O1883     1.0  0.24999999999999992  0.7187499999999999  0.4687499999999999  1.0000
  O   O1884     1.0  0.24999999999999992  0.7812499999999999  0.4687499999999999  1.0000
  O   O1885     1.0  0.24999999999999992  0.8437499999999998  0.4687499999999999  1.0000
  O   O1886     1.0  0.24999999999999992  0.9062499999999998  0.4687499999999999  1.0000
  O   O1887     1.0  0.24999999999999992  0.9687499999999998  0.4687499999999999  1.0000
  O   O1888     1.0  0.24999999999999992  0.031249999999999993  0.4687499999999999  1.0000
  O   O1889     1.0  0.2812499999999999  0.062499999999999986  0.4375000000000001  1.0000
  O   O1890     1.0  0.2812499999999999  0.12499999999999997  0.4375000000000001  1.0000
  O   O1891     1.0  0.2812499999999999  0.18749999999999997  0.4375000000000001  1.0000
  O   O1892     1.0  0.2812499999999999  0.24999999999999994  0.4375000000000001  1.0000
  O   O1893     1.0  0.2812499999999999  0.3124999999999999  0.4375000000000001  1.0000
  O   O1894     1.0  0.2812499999999999  0.3749999999999999  0.4375000000000001  1.0000
  O   O1895     1.0  0.2812499999999999  0.4374999999999999  0.4375000000000001  1.0000
  O   O1896     1.0  0.2812499999999999  0.49999999999999983  0.4375000000000001  1.0000
  O   O1897     1.0  0.2812499999999999  0.5625  0.4375000000000001  1.0000
  O   O1898     1.0  0.2812499999999999  0.625  0.4375000000000001  1.0000
  O   O1899     1.0  0.2812499999999999  0.6875  0.4375000000000001  1.0000
  O   O1900     1.0  0.2812499999999999  0.7499999999999999  0.4375000000000001  1.0000
  O   O1901     1.0  0.2812499999999999  0.8124999999999998  0.4375000000000001  1.0000
  O   O1902     1.0  0.2812499999999999  0.8750000000000001  0.4375000000000001  1.0000
  O   O1903     1.0  0.2812499999999999  0.9374999999999998  0.4375000000000001  1.0000
  O   O1904     1.0  0.2812499999999999  0.0  0.4375000000000001  1.0000
  O   O1905     1.0  0.3125  0.09374999999999999  0.40625000000000017  1.0000
  O   O1906     1.0  0.3125  0.15625  0.40625000000000017  1.0000
  O   O1907     1.0  0.3125  0.21874999999999994  0.40625000000000017  1.0000
  O   O1908     1.0  0.3125  0.28125  0.40625000000000017  1.0000
  O   O1909     1.0  0.3125  0.34375  0.40625000000000017  1.0000
  O   O1910     1.0  0.3125  0.4062499999999999  0.40625000000000017  1.0000
  O   O1911     1.0  0.3125  0.4687499999999999  0.40625000000000017  1.0000
  O   O1912     1.0  0.3125  0.5312499999999999  0.40625000000000017  1.0000
  O   O1913     1.0  0.3125  0.5937499999999998  0.40625000000000017  1.0000
  O   O1914     1.0  0.3125  0.6562499999999998  0.40625000000000017  1.0000
  O   O1915     1.0  0.3125  0.7187499999999999  0.40625000000000017  1.0000
  O   O1916     1.0  0.3125  0.7812499999999999  0.40625000000000017  1.0000
  O   O1917     1.0  0.3125  0.8437499999999998  0.40625000000000017  1.0000
  O   O1918     1.0  0.3125  0.9062499999999998  0.40625000000000017  1.0000
  O   O1919     1.0  0.3125  0.9687499999999998  0.40625000000000017  1.0000
  O   O1920     1.0  0.3125  0.031249999999999993  0.40625000000000017  1.0000
  O   O1921     1.0  0.34375  0.062499999999999986  0.37499999999999994  1.0000
  O   O1922     1.0  0.34375  0.12499999999999997  0.37499999999999994  1.0000
  O   O1923     1.0  0.34375  0.18749999999999997  0.37499999999999994  1.0000
  O   O1924     1.0  0.34375  0.24999999999999994  0.37499999999999994  1.0000
  O   O1925     1.0  0.34375  0.3124999999999999  0.37499999999999994  1.0000
  O   O1926     1.0  0.34375  0.3749999999999999  0.37499999999999994  1.0000
  O   O1927     1.0  0.34375  0.4374999999999999  0.37499999999999994  1.0000
  O   O1928     1.0  0.34375  0.49999999999999983  0.37499999999999994  1.0000
  O   O1929     1.0  0.34375  0.5625  0.37499999999999994  1.0000
  O   O1930     1.0  0.34375  0.625  0.37499999999999994  1.0000
  O   O1931     1.0  0.34375  0.6875  0.37499999999999994  1.0000
  O   O1932     1.0  0.34375  0.7499999999999999  0.37499999999999994  1.0000
  O   O1933     1.0  0.34375  0.8124999999999998  0.37499999999999994  1.0000
  O   O1934     1.0  0.34375  0.8749999999999998  0.37499999999999994  1.0000
  O   O1935     1.0  0.34375  0.9374999999999998  0.37499999999999994  1.0000
  O   O1936     1.0  0.34375  0.0  0.37499999999999994  1.0000
  O   O1937     1.0  0.3749999999999999  0.09374999999999999  0.34375000000000006  1.0000
  O   O1938     1.0  0.3749999999999999  0.15625  0.34375000000000006  1.0000
  O   O1939     1.0  0.3749999999999999  0.21874999999999994  0.34375000000000006  1.0000
  O   O1940     1.0  0.3749999999999999  0.28125  0.34375000000000006  1.0000
  O   O1941     1.0  0.3749999999999999  0.34375  0.34375000000000006  1.0000
  O   O1942     1.0  0.3749999999999999  0.4062499999999999  0.34375000000000006  1.0000
  O   O1943     1.0  0.3749999999999999  0.4687499999999999  0.34375000000000006  1.0000
  O   O1944     1.0  0.3749999999999999  0.5312499999999999  0.34375000000000006  1.0000
  O   O1945     1.0  0.3749999999999999  0.5937499999999998  0.34375000000000006  1.0000
  O   O1946     1.0  0.3749999999999999  0.6562499999999998  0.34375000000000006  1.0000
  O   O1947     1.0  0.3749999999999999  0.7187499999999999  0.34375000000000006  1.0000
  O   O1948     1.0  0.3749999999999999  0.7812499999999999  0.34375000000000006  1.0000
  O   O1949     1.0  0.3749999999999999  0.8437499999999998  0.34375000000000006  1.0000
  O   O1950     1.0  0.3749999999999999  0.9062499999999998  0.34375000000000006  1.0000
  O   O1951     1.0  0.3749999999999999  0.9687499999999998  0.34375000000000006  1.0000
  O   O1952     1.0  0.3749999999999999  0.031249999999999993  0.34375000000000006  1.0000
  O   O1953     1.0  0.4062499999999999  0.062499999999999986  0.31250000000000006  1.0000
  O   O1954     1.0  0.4062499999999999  0.12499999999999997  0.31250000000000006  1.0000
  O   O1955     1.0  0.4062499999999999  0.18749999999999997  0.31250000000000006  1.0000
  O   O1956     1.0  0.4062499999999999  0.24999999999999983  0.31250000000000006  1.0000
  O   O1957     1.0  0.4062499999999999  0.3124999999999999  0.31250000000000006  1.0000
  O   O1958     1.0  0.4062499999999999  0.37499999999999994  0.31250000000000006  1.0000
  O   O1959     1.0  0.4062499999999999  0.4374999999999999  0.31250000000000006  1.0000
  O   O1960     1.0  0.4062499999999999  0.4999999999999999  0.31250000000000006  1.0000
  O   O1961     1.0  0.4062499999999999  0.5625  0.31250000000000006  1.0000
  O   O1962     1.0  0.4062499999999999  0.625  0.31250000000000006  1.0000
  O   O1963     1.0  0.4062499999999999  0.6875  0.31250000000000006  1.0000
  O   O1964     1.0  0.4062499999999999  0.7500000000000001  0.31250000000000006  1.0000
  O   O1965     1.0  0.4062499999999999  0.8124999999999998  0.31250000000000006  1.0000
  O   O1966     1.0  0.4062499999999999  0.8749999999999998  0.31250000000000006  1.0000
  O   O1967     1.0  0.4062499999999999  0.9374999999999998  0.31250000000000006  1.0000
  O   O1968     1.0  0.4062499999999999  0.0  0.31250000000000006  1.0000
  O   O1969     1.0  0.4374999999999999  0.09374999999999999  0.28125000000000006  1.0000
  O   O1970     1.0  0.4374999999999999  0.15625  0.28125000000000006  1.0000
  O   O1971     1.0  0.4374999999999999  0.21874999999999994  0.28125000000000006  1.0000
  O   O1972     1.0  0.4374999999999999  0.28125  0.28125000000000006  1.0000
  O   O1973     1.0  0.4374999999999999  0.3437499999999999  0.28125000000000006  1.0000
  O   O1974     1.0  0.4374999999999999  0.4062499999999999  0.28125000000000006  1.0000
  O   O1975     1.0  0.4374999999999999  0.4687499999999999  0.28125000000000006  1.0000
  O   O1976     1.0  0.4374999999999999  0.5312499999999999  0.28125000000000006  1.0000
  O   O1977     1.0  0.4374999999999999  0.5937499999999998  0.28125000000000006  1.0000
  O   O1978     1.0  0.4374999999999999  0.65625  0.28125000000000006  1.0000
  O   O1979     1.0  0.4374999999999999  0.7187499999999999  0.28125000000000006  1.0000
  O   O1980     1.0  0.4374999999999999  0.7812499999999999  0.28125000000000006  1.0000
  O   O1981     1.0  0.4374999999999999  0.8437499999999998  0.28125000000000006  1.0000
  O   O1982     1.0  0.4374999999999999  0.9062499999999998  0.28125000000000006  1.0000
  O   O1983     1.0  0.4374999999999999  0.9687499999999998  0.28125000000000006  1.0000
  O   O1984     1.0  0.4374999999999999  0.031249999999999993  0.28125000000000006  1.0000
  O   O1985     1.0  0.4687499999999999  0.062499999999999986  0.25  1.0000
  O   O1986     1.0  0.4687499999999999  0.12499999999999997  0.25  1.0000
  O   O1987     1.0  0.4687499999999999  0.18749999999999997  0.25  1.0000
  O   O1988     1.0  0.4687499999999999  0.24999999999999983  0.25  1.0000
  O   O1989     1.0  0.4687499999999999  0.3125  0.25  1.0000
  O   O1990     1.0  0.4687499999999999  0.37499999999999994  0.25  1.0000
  O   O1991     1.0  0.4687499999999999  0.4374999999999999  0.25  1.0000
  O   O1992     1.0  0.4687499999999999  0.49999999999999983  0.25  1.0000
  O   O1993     1.0  0.4687499999999999  0.5625  0.25  1.0000
  O   O1994     1.0  0.4687499999999999  0.6249999999999998  0.25  1.0000
  O   O1995     1.0  0.4687499999999999  0.6875  0.25  1.0000
  O   O1996     1.0  0.4687499999999999  0.7500000000000001  0.25  1.0000
  O   O1997     1.0  0.4687499999999999  0.8124999999999998  0.25  1.0000
  O   O1998     1.0  0.4687499999999999  0.8749999999999998  0.25  1.0000
  O   O1999     1.0  0.4687499999999999  0.9374999999999998  0.25  1.0000
  O   O2000     1.0  0.4687499999999999  0.0  0.25  1.0000
  O   O2001     1.0  0.49999999999999994  0.09374999999999999  0.21875000000000006  1.0000
  O   O2002     1.0  0.49999999999999994  0.15625  0.21875000000000006  1.0000
  O   O2003     1.0  0.49999999999999994  0.21874999999999994  0.21875000000000006  1.0000
  O   O2004     1.0  0.49999999999999994  0.28125  0.21875000000000006  1.0000
  O   O2005     1.0  0.49999999999999994  0.3437499999999999  0.21875000000000006  1.0000
  O   O2006     1.0  0.49999999999999994  0.4062499999999999  0.21875000000000006  1.0000
  O   O2007     1.0  0.49999999999999994  0.4687499999999999  0.21875000000000006  1.0000
  O   O2008     1.0  0.49999999999999994  0.5312499999999999  0.21875000000000006  1.0000
  O   O2009     1.0  0.49999999999999994  0.5937499999999998  0.21875000000000006  1.0000
  O   O2010     1.0  0.49999999999999994  0.65625  0.21875000000000006  1.0000
  O   O2011     1.0  0.49999999999999994  0.7187499999999999  0.21875000000000006  1.0000
  O   O2012     1.0  0.49999999999999994  0.7812499999999999  0.21875000000000006  1.0000
  O   O2013     1.0  0.49999999999999994  0.8437500000000001  0.21875000000000006  1.0000
  O   O2014     1.0  0.49999999999999994  0.9062499999999998  0.21875000000000006  1.0000
  O   O2015     1.0  0.49999999999999994  0.9687499999999998  0.21875000000000006  1.0000
  O   O2016     1.0  0.49999999999999994  0.031249999999999993  0.21875000000000006  1.0000
  O   O2017     1.0  0.5312499999999999  0.062499999999999986  0.18750000000000006  1.0000
  O   O2018     1.0  0.5312499999999999  0.12499999999999997  0.18750000000000006  1.0000
  O   O2019     1.0  0.5312499999999999  0.18749999999999997  0.18750000000000006  1.0000
  O   O2020     1.0  0.5312499999999999  0.24999999999999994  0.18750000000000006  1.0000
  O   O2021     1.0  0.5312499999999999  0.3125  0.18750000000000006  1.0000
  O   O2022     1.0  0.5312499999999999  0.37499999999999994  0.18750000000000006  1.0000
  O   O2023     1.0  0.5312499999999999  0.4374999999999999  0.18750000000000006  1.0000
  O   O2024     1.0  0.5312499999999999  0.49999999999999983  0.18750000000000006  1.0000
  O   O2025     1.0  0.5312499999999999  0.5624999999999998  0.18750000000000006  1.0000
  O   O2026     1.0  0.5312499999999999  0.6249999999999998  0.18750000000000006  1.0000
  O   O2027     1.0  0.5312499999999999  0.6875  0.18750000000000006  1.0000
  O   O2028     1.0  0.5312499999999999  0.7499999999999999  0.18750000000000006  1.0000
  O   O2029     1.0  0.5312499999999999  0.8124999999999998  0.18750000000000006  1.0000
  O   O2030     1.0  0.5312499999999999  0.8749999999999998  0.18750000000000006  1.0000
  O   O2031     1.0  0.5312499999999999  0.9374999999999998  0.18750000000000006  1.0000
  O   O2032     1.0  0.5312499999999999  0.0  0.18750000000000006  1.0000
  O   O2033     1.0  0.5624999999999999  0.09374999999999999  0.15625000000000003  1.0000
  O   O2034     1.0  0.5624999999999999  0.15625  0.15625000000000003  1.0000
  O   O2035     1.0  0.5624999999999999  0.21874999999999994  0.15625000000000003  1.0000
  O   O2036     1.0  0.5624999999999999  0.2812499999999999  0.15625000000000003  1.0000
  O   O2037     1.0  0.5624999999999999  0.3437499999999999  0.15625000000000003  1.0000
  O   O2038     1.0  0.5624999999999999  0.4062499999999999  0.15625000000000003  1.0000
  O   O2039     1.0  0.5624999999999999  0.4687499999999999  0.15625000000000003  1.0000
  O   O2040     1.0  0.5624999999999999  0.53125  0.15625000000000003  1.0000
  O   O2041     1.0  0.5624999999999999  0.59375  0.15625000000000003  1.0000
  O   O2042     1.0  0.5624999999999999  0.65625  0.15625000000000003  1.0000
  O   O2043     1.0  0.5624999999999999  0.7187499999999999  0.15625000000000003  1.0000
  O   O2044     1.0  0.5624999999999999  0.7812499999999999  0.15625000000000003  1.0000
  O   O2045     1.0  0.5624999999999999  0.8437500000000001  0.15625000000000003  1.0000
  O   O2046     1.0  0.5624999999999999  0.9062499999999998  0.15625000000000003  1.0000
  O   O2047     1.0  0.5624999999999999  0.9687499999999998  0.15625000000000003  1.0000
  O   O2048     1.0  0.5624999999999999  0.031249999999999993  0.15625000000000003  1.0000
  O   O2049     1.0  0.59375  0.062499999999999986  0.12500000000000006  1.0000
  O   O2050     1.0  0.59375  0.12499999999999997  0.12500000000000006  1.0000
  O   O2051     1.0  0.59375  0.18749999999999997  0.12500000000000006  1.0000
  O   O2052     1.0  0.59375  0.24999999999999994  0.12500000000000006  1.0000
  O   O2053     1.0  0.59375  0.3125  0.12500000000000006  1.0000
  O   O2054     1.0  0.59375  0.37499999999999994  0.12500000000000006  1.0000
  O   O2055     1.0  0.59375  0.4374999999999999  0.12500000000000006  1.0000
  O   O2056     1.0  0.59375  0.49999999999999983  0.12500000000000006  1.0000
  O   O2057     1.0  0.59375  0.5624999999999998  0.12500000000000006  1.0000
  O   O2058     1.0  0.59375  0.6249999999999998  0.12500000000000006  1.0000
  O   O2059     1.0  0.59375  0.6875  0.12500000000000006  1.0000
  O   O2060     1.0  0.59375  0.7499999999999999  0.12500000000000006  1.0000
  O   O2061     1.0  0.59375  0.8124999999999998  0.12500000000000006  1.0000
  O   O2062     1.0  0.59375  0.8749999999999998  0.12500000000000006  1.0000
  O   O2063     1.0  0.59375  0.9374999999999998  0.12500000000000006  1.0000
  O   O2064     1.0  0.59375  0.0  0.12500000000000006  1.0000
  O   O2065     1.0  0.6250000000000001  0.09374999999999999  0.09375000000000015  1.0000
  O   O2066     1.0  0.6250000000000001  0.15625  0.09375000000000015  1.0000
  O   O2067     1.0  0.6250000000000001  0.21874999999999994  0.09375000000000015  1.0000
  O   O2068     1.0  0.6250000000000001  0.2812499999999999  0.09375000000000015  1.0000
  O   O2069     1.0  0.6250000000000001  0.3437499999999999  0.09375000000000015  1.0000
  O   O2070     1.0  0.6250000000000001  0.4062499999999999  0.09375000000000015  1.0000
  O   O2071     1.0  0.6250000000000001  0.4687499999999999  0.09375000000000015  1.0000
  O   O2072     1.0  0.6250000000000001  0.53125  0.09375000000000015  1.0000
  O   O2073     1.0  0.6250000000000001  0.59375  0.09375000000000015  1.0000
  O   O2074     1.0  0.6250000000000001  0.6562499999999998  0.09375000000000015  1.0000
  O   O2075     1.0  0.6250000000000001  0.7187499999999999  0.09375000000000015  1.0000
  O   O2076     1.0  0.6250000000000001  0.7812499999999999  0.09375000000000015  1.0000
  O   O2077     1.0  0.6250000000000001  0.8437499999999998  0.09375000000000015  1.0000
  O   O2078     1.0  0.6250000000000001  0.9062499999999998  0.09375000000000015  1.0000
  O   O2079     1.0  0.6250000000000001  0.9687499999999998  0.09375000000000015  1.0000
  O   O2080     1.0  0.6250000000000001  0.031249999999999993  0.09375000000000015  1.0000
  O   O2081     1.0  0.6562499999999999  0.062499999999999986  0.06250000000000017  1.0000
  O   O2082     1.0  0.6562499999999999  0.12499999999999997  0.06250000000000017  1.0000
  O   O2083     1.0  0.6562499999999999  0.18749999999999997  0.06250000000000017  1.0000
  O   O2084     1.0  0.6562499999999999  0.24999999999999994  0.06250000000000017  1.0000
  O   O2085     1.0  0.6562499999999999  0.3125  0.06250000000000017  1.0000
  O   O2086     1.0  0.6562499999999999  0.3749999999999999  0.06250000000000017  1.0000
  O   O2087     1.0  0.6562499999999999  0.4374999999999999  0.06250000000000017  1.0000
  O   O2088     1.0  0.6562499999999999  0.49999999999999983  0.06250000000000017  1.0000
  O   O2089     1.0  0.6562499999999999  0.5624999999999998  0.06250000000000017  1.0000
  O   O2090     1.0  0.6562499999999999  0.6249999999999998  0.06250000000000017  1.0000
  O   O2091     1.0  0.6562499999999999  0.6875  0.06250000000000017  1.0000
  O   O2092     1.0  0.6562499999999999  0.7499999999999999  0.06250000000000017  1.0000
  O   O2093     1.0  0.6562499999999999  0.8124999999999998  0.06250000000000017  1.0000
  O   O2094     1.0  0.6562499999999999  0.8749999999999998  0.06250000000000017  1.0000
  O   O2095     1.0  0.6562499999999999  0.9374999999999998  0.06250000000000017  1.0000
  O   O2096     1.0  0.6562499999999999  0.0  0.06250000000000017  1.0000
  O   O2097     1.0  0.6875000000000002  0.09374999999999999  0.03125000000000017  1.0000
  O   O2098     1.0  0.6875000000000002  0.15625  0.03125000000000017  1.0000
  O   O2099     1.0  0.6875000000000002  0.21874999999999994  0.03125000000000017  1.0000
  O   O2100     1.0  0.6875000000000002  0.2812499999999999  0.03125000000000017  1.0000
  O   O2101     1.0  0.6875000000000002  0.34375  0.03125000000000017  1.0000
  O   O2102     1.0  0.6875000000000002  0.4062499999999999  0.03125000000000017  1.0000
  O   O2103     1.0  0.6875000000000002  0.4687499999999999  0.03125000000000017  1.0000
  O   O2104     1.0  0.6875000000000002  0.53125  0.03125000000000017  1.0000
  O   O2105     1.0  0.6875000000000002  0.59375  0.03125000000000017  1.0000
  O   O2106     1.0  0.6875000000000002  0.6562499999999998  0.03125000000000017  1.0000
  O   O2107     1.0  0.6875000000000002  0.7187499999999999  0.03125000000000017  1.0000
  O   O2108     1.0  0.6875000000000002  0.7812499999999999  0.03125000000000017  1.0000
  O   O2109     1.0  0.6875000000000002  0.8437499999999998  0.03125000000000017  1.0000
  O   O2110     1.0  0.6875000000000002  0.9062499999999998  0.03125000000000017  1.0000
  O   O2111     1.0  0.6875000000000002  0.9687499999999998  0.03125000000000017  1.0000
  O   O2112     1.0  0.6875000000000002  0.031249999999999993  0.03125000000000017  1.0000
  O   O2113     1.0  0.03125  0.062499999999999986  0.75  1.0000
  O   O2114     1.0  0.03125  0.12499999999999997  0.75  1.0000
  O   O2115     1.0  0.03125  0.18749999999999997  0.75  1.0000
  O   O2116     1.0  0.03125  0.24999999999999994  0.75  1.0000
  O   O2117     1.0  0.03125  0.3125  0.75  1.0000
  O   O2118     1.0  0.03125  0.37499999999999994  0.75  1.0000
  O   O2119     1.0  0.03125  0.4374999999999999  0.75  1.0000
  O   O2120     1.0  0.03125  0.49999999999999983  0.75  1.0000
  O   O2121     1.0  0.03125  0.5624999999999998  0.75  1.0000
  O   O2122     1.0  0.03125  0.6249999999999998  0.75  1.0000
  O   O2123     1.0  0.03125  0.6874999999999998  0.75  1.0000
  O   O2124     1.0  0.03125  0.7499999999999999  0.75  1.0000
  O   O2125     1.0  0.03125  0.8124999999999998  0.75  1.0000
  O   O2126     1.0  0.03125  0.8749999999999998  0.75  1.0000
  O   O2127     1.0  0.03125  0.9374999999999998  0.75  1.0000
  O   O2128     1.0  0.03125  0.9999999999999999  0.75  1.0000
  O   O2129     1.0  0.0625  0.09374999999999999  0.71875  1.0000
  O   O2130     1.0  0.0625  0.15625  0.71875  1.0000
  O   O2131     1.0  0.0625  0.21874999999999994  0.71875  1.0000
  O   O2132     1.0  0.0625  0.2812499999999999  0.71875  1.0000
  O   O2133     1.0  0.0625  0.3437499999999999  0.71875  1.0000
  O   O2134     1.0  0.0625  0.4062499999999999  0.71875  1.0000
  O   O2135     1.0  0.0625  0.4687499999999999  0.71875  1.0000
  O   O2136     1.0  0.0625  0.5312499999999999  0.71875  1.0000
  O   O2137     1.0  0.0625  0.59375  0.71875  1.0000
  O   O2138     1.0  0.0625  0.65625  0.71875  1.0000
  O   O2139     1.0  0.0625  0.7187499999999999  0.71875  1.0000
  O   O2140     1.0  0.0625  0.7812499999999999  0.71875  1.0000
  O   O2141     1.0  0.0625  0.8437499999999998  0.71875  1.0000
  O   O2142     1.0  0.0625  0.9062499999999998  0.71875  1.0000
  O   O2143     1.0  0.0625  0.9687499999999998  0.71875  1.0000
  O   O2144     1.0  0.0625  0.031249999999999993  0.71875  1.0000
  O   O2145     1.0  0.09375  0.062499999999999986  0.6875000000000001  1.0000
  O   O2146     1.0  0.09375  0.12499999999999997  0.6875000000000001  1.0000
  O   O2147     1.0  0.09375  0.18749999999999997  0.6875000000000001  1.0000
  O   O2148     1.0  0.09375  0.24999999999999994  0.6875000000000001  1.0000
  O   O2149     1.0  0.09375  0.3125  0.6875000000000001  1.0000
  O   O2150     1.0  0.09375  0.37499999999999994  0.6875000000000001  1.0000
  O   O2151     1.0  0.09375  0.4374999999999999  0.6875000000000001  1.0000
  O   O2152     1.0  0.09375  0.49999999999999983  0.6875000000000001  1.0000
  O   O2153     1.0  0.09375  0.5624999999999998  0.6875000000000001  1.0000
  O   O2154     1.0  0.09375  0.6249999999999998  0.6875000000000001  1.0000
  O   O2155     1.0  0.09375  0.6874999999999998  0.6875000000000001  1.0000
  O   O2156     1.0  0.09375  0.7499999999999999  0.6875000000000001  1.0000
  O   O2157     1.0  0.09375  0.8124999999999998  0.6875000000000001  1.0000
  O   O2158     1.0  0.09375  0.8749999999999998  0.6875000000000001  1.0000
  O   O2159     1.0  0.09375  0.9374999999999998  0.6875000000000001  1.0000
  O   O2160     1.0  0.09375  0.9999999999999999  0.6875000000000001  1.0000
  O   O2161     1.0  0.125  0.09374999999999999  0.6562500000000001  1.0000
  O   O2162     1.0  0.125  0.15625  0.6562500000000001  1.0000
  O   O2163     1.0  0.125  0.21874999999999994  0.6562500000000001  1.0000
  O   O2164     1.0  0.125  0.2812499999999999  0.6562500000000001  1.0000
  O   O2165     1.0  0.125  0.3437499999999999  0.6562500000000001  1.0000
  O   O2166     1.0  0.125  0.4062499999999999  0.6562500000000001  1.0000
  O   O2167     1.0  0.125  0.4687499999999999  0.6562500000000001  1.0000
  O   O2168     1.0  0.125  0.53125  0.6562500000000001  1.0000
  O   O2169     1.0  0.125  0.59375  0.6562500000000001  1.0000
  O   O2170     1.0  0.125  0.6562499999999998  0.6562500000000001  1.0000
  O   O2171     1.0  0.125  0.7187499999999999  0.6562500000000001  1.0000
  O   O2172     1.0  0.125  0.7812500000000001  0.6562500000000001  1.0000
  O   O2173     1.0  0.125  0.8437499999999998  0.6562500000000001  1.0000
  O   O2174     1.0  0.125  0.9062499999999998  0.6562500000000001  1.0000
  O   O2175     1.0  0.125  0.9687499999999998  0.6562500000000001  1.0000
  O   O2176     1.0  0.125  0.031249999999999993  0.6562500000000001  1.0000
  O   O2177     1.0  0.15625000000000006  0.062499999999999986  0.6250000000000001  1.0000
  O   O2178     1.0  0.15625000000000006  0.12499999999999997  0.6250000000000001  1.0000
  O   O2179     1.0  0.15625000000000006  0.18749999999999997  0.6250000000000001  1.0000
  O   O2180     1.0  0.15625000000000006  0.24999999999999994  0.6250000000000001  1.0000
  O   O2181     1.0  0.15625000000000006  0.3125  0.6250000000000001  1.0000
  O   O2182     1.0  0.15625000000000006  0.3749999999999999  0.6250000000000001  1.0000
  O   O2183     1.0  0.15625000000000006  0.4374999999999999  0.6250000000000001  1.0000
  O   O2184     1.0  0.15625000000000006  0.49999999999999983  0.6250000000000001  1.0000
  O   O2185     1.0  0.15625000000000006  0.5624999999999998  0.6250000000000001  1.0000
  O   O2186     1.0  0.15625000000000006  0.6249999999999998  0.6250000000000001  1.0000
  O   O2187     1.0  0.15625000000000006  0.6875  0.6250000000000001  1.0000
  O   O2188     1.0  0.15625000000000006  0.7499999999999999  0.6250000000000001  1.0000
  O   O2189     1.0  0.15625000000000006  0.8124999999999998  0.6250000000000001  1.0000
  O   O2190     1.0  0.15625000000000006  0.8749999999999998  0.6250000000000001  1.0000
  O   O2191     1.0  0.15625000000000006  0.9374999999999998  0.6250000000000001  1.0000
  O   O2192     1.0  0.15625000000000006  0.0  0.6250000000000001  1.0000
  O   O2193     1.0  0.1874999999999999  0.09374999999999999  0.5937500000000001  1.0000
  O   O2194     1.0  0.1874999999999999  0.15625  0.5937500000000001  1.0000
  O   O2195     1.0  0.1874999999999999  0.21874999999999994  0.5937500000000001  1.0000
  O   O2196     1.0  0.1874999999999999  0.2812499999999999  0.5937500000000001  1.0000
  O   O2197     1.0  0.1874999999999999  0.34375  0.5937500000000001  1.0000
  O   O2198     1.0  0.1874999999999999  0.4062499999999999  0.5937500000000001  1.0000
  O   O2199     1.0  0.1874999999999999  0.4687499999999999  0.5937500000000001  1.0000
  O   O2200     1.0  0.1874999999999999  0.53125  0.5937500000000001  1.0000
  O   O2201     1.0  0.1874999999999999  0.59375  0.5937500000000001  1.0000
  O   O2202     1.0  0.1874999999999999  0.6562499999999998  0.5937500000000001  1.0000
  O   O2203     1.0  0.1874999999999999  0.7187499999999999  0.5937500000000001  1.0000
  O   O2204     1.0  0.1874999999999999  0.7812499999999999  0.5937500000000001  1.0000
  O   O2205     1.0  0.1874999999999999  0.8437499999999998  0.5937500000000001  1.0000
  O   O2206     1.0  0.1874999999999999  0.9062499999999998  0.5937500000000001  1.0000
  O   O2207     1.0  0.1874999999999999  0.9687499999999998  0.5937500000000001  1.0000
  O   O2208     1.0  0.1874999999999999  0.031249999999999993  0.5937500000000001  1.0000
  O   O2209     1.0  0.2187499999999999  0.062499999999999986  0.5625000000000001  1.0000
  O   O2210     1.0  0.2187499999999999  0.12499999999999997  0.5625000000000001  1.0000
  O   O2211     1.0  0.2187499999999999  0.18749999999999997  0.5625000000000001  1.0000
  O   O2212     1.0  0.2187499999999999  0.24999999999999994  0.5625000000000001  1.0000
  O   O2213     1.0  0.2187499999999999  0.3124999999999999  0.5625000000000001  1.0000
  O   O2214     1.0  0.2187499999999999  0.3749999999999999  0.5625000000000001  1.0000
  O   O2215     1.0  0.2187499999999999  0.4374999999999999  0.5625000000000001  1.0000
  O   O2216     1.0  0.2187499999999999  0.49999999999999983  0.5625000000000001  1.0000
  O   O2217     1.0  0.2187499999999999  0.5624999999999998  0.5625000000000001  1.0000
  O   O2218     1.0  0.2187499999999999  0.6249999999999998  0.5625000000000001  1.0000
  O   O2219     1.0  0.2187499999999999  0.6875  0.5625000000000001  1.0000
  O   O2220     1.0  0.2187499999999999  0.7499999999999999  0.5625000000000001  1.0000
  O   O2221     1.0  0.2187499999999999  0.8124999999999998  0.5625000000000001  1.0000
  O   O2222     1.0  0.2187499999999999  0.8750000000000001  0.5625000000000001  1.0000
  O   O2223     1.0  0.2187499999999999  0.9374999999999998  0.5625000000000001  1.0000
  O   O2224     1.0  0.2187499999999999  0.0  0.5625000000000001  1.0000
  O   O2225     1.0  0.25  0.09374999999999999  0.53125  1.0000
  O   O2226     1.0  0.25  0.15625  0.53125  1.0000
  O   O2227     1.0  0.25  0.21874999999999994  0.53125  1.0000
  O   O2228     1.0  0.25  0.28125  0.53125  1.0000
  O   O2229     1.0  0.25  0.34375  0.53125  1.0000
  O   O2230     1.0  0.25  0.4062499999999999  0.53125  1.0000
  O   O2231     1.0  0.25  0.4687499999999999  0.53125  1.0000
  O   O2232     1.0  0.25  0.53125  0.53125  1.0000
  O   O2233     1.0  0.25  0.5937499999999998  0.53125  1.0000
  O   O2234     1.0  0.25  0.6562499999999998  0.53125  1.0000
  O   O2235     1.0  0.25  0.7187499999999999  0.53125  1.0000
  O   O2236     1.0  0.25  0.7812499999999999  0.53125  1.0000
  O   O2237     1.0  0.25  0.8437499999999998  0.53125  1.0000
  O   O2238     1.0  0.25  0.9062499999999998  0.53125  1.0000
  O   O2239     1.0  0.25  0.9687499999999998  0.53125  1.0000
  O   O2240     1.0  0.25  0.031249999999999993  0.53125  1.0000
  O   O2241     1.0  0.2812499999999999  0.062499999999999986  0.5  1.0000
  O   O2242     1.0  0.2812499999999999  0.12499999999999997  0.5  1.0000
  O   O2243     1.0  0.2812499999999999  0.18749999999999997  0.5  1.0000
  O   O2244     1.0  0.2812499999999999  0.24999999999999994  0.5  1.0000
  O   O2245     1.0  0.2812499999999999  0.3124999999999999  0.5  1.0000
  O   O2246     1.0  0.2812499999999999  0.3749999999999999  0.5  1.0000
  O   O2247     1.0  0.2812499999999999  0.4374999999999999  0.5  1.0000
  O   O2248     1.0  0.2812499999999999  0.49999999999999983  0.5  1.0000
  O   O2249     1.0  0.2812499999999999  0.5625  0.5  1.0000
  O   O2250     1.0  0.2812499999999999  0.625  0.5  1.0000
  O   O2251     1.0  0.2812499999999999  0.6875  0.5  1.0000
  O   O2252     1.0  0.2812499999999999  0.7499999999999999  0.5  1.0000
  O   O2253     1.0  0.2812499999999999  0.8124999999999998  0.5  1.0000
  O   O2254     1.0  0.2812499999999999  0.8750000000000001  0.5  1.0000
  O   O2255     1.0  0.2812499999999999  0.9374999999999998  0.5  1.0000
  O   O2256     1.0  0.2812499999999999  0.0  0.5  1.0000
  O   O2257     1.0  0.3125  0.09374999999999999  0.4687500000000001  1.0000
  O   O2258     1.0  0.3125  0.15625  0.4687500000000001  1.0000
  O   O2259     1.0  0.3125  0.21874999999999994  0.4687500000000001  1.0000
  O   O2260     1.0  0.3125  0.28125  0.4687500000000001  1.0000
  O   O2261     1.0  0.3125  0.34375  0.4687500000000001  1.0000
  O   O2262     1.0  0.3125  0.4062499999999999  0.4687500000000001  1.0000
  O   O2263     1.0  0.3125  0.4687499999999999  0.4687500000000001  1.0000
  O   O2264     1.0  0.3125  0.5312499999999999  0.4687500000000001  1.0000
  O   O2265     1.0  0.3125  0.5937499999999998  0.4687500000000001  1.0000
  O   O2266     1.0  0.3125  0.6562499999999998  0.4687500000000001  1.0000
  O   O2267     1.0  0.3125  0.7187499999999999  0.4687500000000001  1.0000
  O   O2268     1.0  0.3125  0.7812499999999999  0.4687500000000001  1.0000
  O   O2269     1.0  0.3125  0.8437499999999998  0.4687500000000001  1.0000
  O   O2270     1.0  0.3125  0.9062499999999998  0.4687500000000001  1.0000
  O   O2271     1.0  0.3125  0.9687499999999998  0.4687500000000001  1.0000
  O   O2272     1.0  0.3125  0.031249999999999993  0.4687500000000001  1.0000
  O   O2273     1.0  0.3437500000000001  0.062499999999999986  0.43749999999999994  1.0000
  O   O2274     1.0  0.3437500000000001  0.12499999999999997  0.43749999999999994  1.0000
  O   O2275     1.0  0.3437500000000001  0.18749999999999997  0.43749999999999994  1.0000
  O   O2276     1.0  0.3437500000000001  0.24999999999999994  0.43749999999999994  1.0000
  O   O2277     1.0  0.3437500000000001  0.3124999999999999  0.43749999999999994  1.0000
  O   O2278     1.0  0.3437500000000001  0.3749999999999999  0.43749999999999994  1.0000
  O   O2279     1.0  0.3437500000000001  0.4374999999999999  0.43749999999999994  1.0000
  O   O2280     1.0  0.3437500000000001  0.49999999999999983  0.43749999999999994  1.0000
  O   O2281     1.0  0.3437500000000001  0.5625  0.43749999999999994  1.0000
  O   O2282     1.0  0.3437500000000001  0.625  0.43749999999999994  1.0000
  O   O2283     1.0  0.3437500000000001  0.6875  0.43749999999999994  1.0000
  O   O2284     1.0  0.3437500000000001  0.7499999999999999  0.43749999999999994  1.0000
  O   O2285     1.0  0.3437500000000001  0.8124999999999998  0.43749999999999994  1.0000
  O   O2286     1.0  0.3437500000000001  0.8749999999999998  0.43749999999999994  1.0000
  O   O2287     1.0  0.3437500000000001  0.9374999999999998  0.43749999999999994  1.0000
  O   O2288     1.0  0.3437500000000001  0.0  0.43749999999999994  1.0000
  O   O2289     1.0  0.3749999999999999  0.09374999999999999  0.40624999999999994  1.0000
  O   O2290     1.0  0.3749999999999999  0.15625  0.40624999999999994  1.0000
  O   O2291     1.0  0.3749999999999999  0.21874999999999994  0.40624999999999994  1.0000
  O   O2292     1.0  0.3749999999999999  0.28125  0.40624999999999994  1.0000
  O   O2293     1.0  0.3749999999999999  0.34375  0.40624999999999994  1.0000
  O   O2294     1.0  0.3749999999999999  0.4062499999999999  0.40624999999999994  1.0000
  O   O2295     1.0  0.3749999999999999  0.4687499999999999  0.40624999999999994  1.0000
  O   O2296     1.0  0.3749999999999999  0.5312499999999999  0.40624999999999994  1.0000
  O   O2297     1.0  0.3749999999999999  0.5937499999999998  0.40624999999999994  1.0000
  O   O2298     1.0  0.3749999999999999  0.6562499999999998  0.40624999999999994  1.0000
  O   O2299     1.0  0.3749999999999999  0.7187499999999999  0.40624999999999994  1.0000
  O   O2300     1.0  0.3749999999999999  0.7812499999999999  0.40624999999999994  1.0000
  O   O2301     1.0  0.3749999999999999  0.8437499999999998  0.40624999999999994  1.0000
  O   O2302     1.0  0.3749999999999999  0.9062499999999998  0.40624999999999994  1.0000
  O   O2303     1.0  0.3749999999999999  0.9687499999999998  0.40624999999999994  1.0000
  O   O2304     1.0  0.3749999999999999  0.031249999999999993  0.40624999999999994  1.0000
  O   O2305     1.0  0.4062499999999999  0.062499999999999986  0.37499999999999994  1.0000
  O   O2306     1.0  0.4062499999999999  0.12499999999999997  0.37499999999999994  1.0000
  O   O2307     1.0  0.4062499999999999  0.18749999999999997  0.37499999999999994  1.0000
  O   O2308     1.0  0.4062499999999999  0.24999999999999983  0.37499999999999994  1.0000
  O   O2309     1.0  0.4062499999999999  0.3124999999999999  0.37499999999999994  1.0000
  O   O2310     1.0  0.4062499999999999  0.37499999999999994  0.37499999999999994  1.0000
  O   O2311     1.0  0.4062499999999999  0.4374999999999999  0.37499999999999994  1.0000
  O   O2312     1.0  0.4062499999999999  0.4999999999999999  0.37499999999999994  1.0000
  O   O2313     1.0  0.4062499999999999  0.5625  0.37499999999999994  1.0000
  O   O2314     1.0  0.4062499999999999  0.625  0.37499999999999994  1.0000
  O   O2315     1.0  0.4062499999999999  0.6875  0.37499999999999994  1.0000
  O   O2316     1.0  0.4062499999999999  0.7500000000000001  0.37499999999999994  1.0000
  O   O2317     1.0  0.4062499999999999  0.8124999999999998  0.37499999999999994  1.0000
  O   O2318     1.0  0.4062499999999999  0.8749999999999998  0.37499999999999994  1.0000
  O   O2319     1.0  0.4062499999999999  0.9374999999999998  0.37499999999999994  1.0000
  O   O2320     1.0  0.4062499999999999  0.0  0.37499999999999994  1.0000
  O   O2321     1.0  0.4374999999999999  0.09374999999999999  0.34375000000000006  1.0000
  O   O2322     1.0  0.4374999999999999  0.15625  0.34375000000000006  1.0000
  O   O2323     1.0  0.4374999999999999  0.21874999999999994  0.34375000000000006  1.0000
  O   O2324     1.0  0.4374999999999999  0.28125  0.34375000000000006  1.0000
  O   O2325     1.0  0.4374999999999999  0.3437499999999999  0.34375000000000006  1.0000
  O   O2326     1.0  0.4374999999999999  0.4062499999999999  0.34375000000000006  1.0000
  O   O2327     1.0  0.4374999999999999  0.4687499999999999  0.34375000000000006  1.0000
  O   O2328     1.0  0.4374999999999999  0.5312499999999999  0.34375000000000006  1.0000
  O   O2329     1.0  0.4374999999999999  0.5937499999999998  0.34375000000000006  1.0000
  O   O2330     1.0  0.4374999999999999  0.65625  0.34375000000000006  1.0000
  O   O2331     1.0  0.4374999999999999  0.7187499999999999  0.34375000000000006  1.0000
  O   O2332     1.0  0.4374999999999999  0.7812499999999999  0.34375000000000006  1.0000
  O   O2333     1.0  0.4374999999999999  0.8437499999999998  0.34375000000000006  1.0000
  O   O2334     1.0  0.4374999999999999  0.9062499999999998  0.34375000000000006  1.0000
  O   O2335     1.0  0.4374999999999999  0.9687499999999998  0.34375000000000006  1.0000
  O   O2336     1.0  0.4374999999999999  0.031249999999999993  0.34375000000000006  1.0000
  O   O2337     1.0  0.4687499999999999  0.062499999999999986  0.31250000000000006  1.0000
  O   O2338     1.0  0.4687499999999999  0.12499999999999997  0.31250000000000006  1.0000
  O   O2339     1.0  0.4687499999999999  0.18749999999999997  0.31250000000000006  1.0000
  O   O2340     1.0  0.4687499999999999  0.24999999999999983  0.31250000000000006  1.0000
  O   O2341     1.0  0.4687499999999999  0.3125  0.31250000000000006  1.0000
  O   O2342     1.0  0.4687499999999999  0.37499999999999994  0.31250000000000006  1.0000
  O   O2343     1.0  0.4687499999999999  0.4374999999999999  0.31250000000000006  1.0000
  O   O2344     1.0  0.4687499999999999  0.49999999999999983  0.31250000000000006  1.0000
  O   O2345     1.0  0.4687499999999999  0.5625  0.31250000000000006  1.0000
  O   O2346     1.0  0.4687499999999999  0.6249999999999998  0.31250000000000006  1.0000
  O   O2347     1.0  0.4687499999999999  0.6875  0.31250000000000006  1.0000
  O   O2348     1.0  0.4687499999999999  0.7500000000000001  0.31250000000000006  1.0000
  O   O2349     1.0  0.4687499999999999  0.8124999999999998  0.31250000000000006  1.0000
  O   O2350     1.0  0.4687499999999999  0.8749999999999998  0.31250000000000006  1.0000
  O   O2351     1.0  0.4687499999999999  0.9374999999999998  0.31250000000000006  1.0000
  O   O2352     1.0  0.4687499999999999  0.0  0.31250000000000006  1.0000
  O   O2353     1.0  0.49999999999999994  0.09374999999999999  0.2812499999999999  1.0000
  O   O2354     1.0  0.49999999999999994  0.15625  0.2812499999999999  1.0000
  O   O2355     1.0  0.49999999999999994  0.21874999999999994  0.2812499999999999  1.0000
  O   O2356     1.0  0.49999999999999994  0.28125  0.2812499999999999  1.0000
  O   O2357     1.0  0.49999999999999994  0.3437499999999999  0.2812499999999999  1.0000
  O   O2358     1.0  0.49999999999999994  0.4062499999999999  0.2812499999999999  1.0000
  O   O2359     1.0  0.49999999999999994  0.4687499999999999  0.2812499999999999  1.0000
  O   O2360     1.0  0.49999999999999994  0.5312499999999999  0.2812499999999999  1.0000
  O   O2361     1.0  0.49999999999999994  0.5937499999999998  0.2812499999999999  1.0000
  O   O2362     1.0  0.49999999999999994  0.65625  0.2812499999999999  1.0000
  O   O2363     1.0  0.49999999999999994  0.7187499999999999  0.2812499999999999  1.0000
  O   O2364     1.0  0.49999999999999994  0.7812499999999999  0.2812499999999999  1.0000
  O   O2365     1.0  0.49999999999999994  0.8437500000000001  0.2812499999999999  1.0000
  O   O2366     1.0  0.49999999999999994  0.9062499999999998  0.2812499999999999  1.0000
  O   O2367     1.0  0.49999999999999994  0.9687499999999998  0.2812499999999999  1.0000
  O   O2368     1.0  0.49999999999999994  0.031249999999999993  0.2812499999999999  1.0000
  O   O2369     1.0  0.5312499999999999  0.062499999999999986  0.25  1.0000
  O   O2370     1.0  0.5312499999999999  0.12499999999999997  0.25  1.0000
  O   O2371     1.0  0.5312499999999999  0.18749999999999997  0.25  1.0000
  O   O2372     1.0  0.5312499999999999  0.24999999999999994  0.25  1.0000
  O   O2373     1.0  0.5312499999999999  0.3125  0.25  1.0000
  O   O2374     1.0  0.5312499999999999  0.37499999999999994  0.25  1.0000
  O   O2375     1.0  0.5312499999999999  0.4374999999999999  0.25  1.0000
  O   O2376     1.0  0.5312499999999999  0.49999999999999983  0.25  1.0000
  O   O2377     1.0  0.5312499999999999  0.5624999999999998  0.25  1.0000
  O   O2378     1.0  0.5312499999999999  0.6249999999999998  0.25  1.0000
  O   O2379     1.0  0.5312499999999999  0.6875  0.25  1.0000
  O   O2380     1.0  0.5312499999999999  0.7499999999999999  0.25  1.0000
  O   O2381     1.0  0.5312499999999999  0.8124999999999998  0.25  1.0000
  O   O2382     1.0  0.5312499999999999  0.8749999999999998  0.25  1.0000
  O   O2383     1.0  0.5312499999999999  0.9374999999999998  0.25  1.0000
  O   O2384     1.0  0.5312499999999999  0.0  0.25  1.0000
  O   O2385     1.0  0.5624999999999999  0.09374999999999999  0.21875000000000006  1.0000
  O   O2386     1.0  0.5624999999999999  0.15625  0.21875000000000006  1.0000
  O   O2387     1.0  0.5624999999999999  0.21874999999999994  0.21875000000000006  1.0000
  O   O2388     1.0  0.5624999999999999  0.2812499999999999  0.21875000000000006  1.0000
  O   O2389     1.0  0.5624999999999999  0.3437499999999999  0.21875000000000006  1.0000
  O   O2390     1.0  0.5624999999999999  0.4062499999999999  0.21875000000000006  1.0000
  O   O2391     1.0  0.5624999999999999  0.4687499999999999  0.21875000000000006  1.0000
  O   O2392     1.0  0.5624999999999999  0.53125  0.21875000000000006  1.0000
  O   O2393     1.0  0.5624999999999999  0.59375  0.21875000000000006  1.0000
  O   O2394     1.0  0.5624999999999999  0.65625  0.21875000000000006  1.0000
  O   O2395     1.0  0.5624999999999999  0.7187499999999999  0.21875000000000006  1.0000
  O   O2396     1.0  0.5624999999999999  0.7812499999999999  0.21875000000000006  1.0000
  O   O2397     1.0  0.5624999999999999  0.8437500000000001  0.21875000000000006  1.0000
  O   O2398     1.0  0.5624999999999999  0.9062499999999998  0.21875000000000006  1.0000
  O   O2399     1.0  0.5624999999999999  0.9687499999999998  0.21875000000000006  1.0000
  O   O2400     1.0  0.5624999999999999  0.031249999999999993  0.21875000000000006  1.0000
  O   O2401     1.0  0.5937499999999999  0.062499999999999986  0.18750000000000006  1.0000
  O   O2402     1.0  0.5937499999999999  0.12499999999999997  0.18750000000000006  1.0000
  O   O2403     1.0  0.5937499999999999  0.18749999999999997  0.18750000000000006  1.0000
  O   O2404     1.0  0.5937499999999999  0.24999999999999994  0.18750000000000006  1.0000
  O   O2405     1.0  0.5937499999999999  0.3125  0.18750000000000006  1.0000
  O   O2406     1.0  0.5937499999999999  0.37499999999999994  0.18750000000000006  1.0000
  O   O2407     1.0  0.5937499999999999  0.4374999999999999  0.18750000000000006  1.0000
  O   O2408     1.0  0.5937499999999999  0.49999999999999983  0.18750000000000006  1.0000
  O   O2409     1.0  0.5937499999999999  0.5624999999999998  0.18750000000000006  1.0000
  O   O2410     1.0  0.5937499999999999  0.6249999999999998  0.18750000000000006  1.0000
  O   O2411     1.0  0.5937499999999999  0.6875  0.18750000000000006  1.0000
  O   O2412     1.0  0.5937499999999999  0.7499999999999999  0.18750000000000006  1.0000
  O   O2413     1.0  0.5937499999999999  0.8124999999999998  0.18750000000000006  1.0000
  O   O2414     1.0  0.5937499999999999  0.8749999999999998  0.18750000000000006  1.0000
  O   O2415     1.0  0.5937499999999999  0.9374999999999998  0.18750000000000006  1.0000
  O   O2416     1.0  0.5937499999999999  0.0  0.18750000000000006  1.0000
  O   O2417     1.0  0.6250000000000002  0.09374999999999999  0.15625000000000003  1.0000
  O   O2418     1.0  0.6250000000000002  0.15625  0.15625000000000003  1.0000
  O   O2419     1.0  0.6250000000000002  0.21874999999999994  0.15625000000000003  1.0000
  O   O2420     1.0  0.6250000000000002  0.2812499999999999  0.15625000000000003  1.0000
  O   O2421     1.0  0.6250000000000002  0.3437499999999999  0.15625000000000003  1.0000
  O   O2422     1.0  0.6250000000000002  0.4062499999999999  0.15625000000000003  1.0000
  O   O2423     1.0  0.6250000000000002  0.4687499999999999  0.15625000000000003  1.0000
  O   O2424     1.0  0.6250000000000002  0.53125  0.15625000000000003  1.0000
  O   O2425     1.0  0.6250000000000002  0.59375  0.15625000000000003  1.0000
  O   O2426     1.0  0.6250000000000002  0.6562499999999998  0.15625000000000003  1.0000
  O   O2427     1.0  0.6250000000000002  0.7187499999999999  0.15625000000000003  1.0000
  O   O2428     1.0  0.6250000000000002  0.7812499999999999  0.15625000000000003  1.0000
  O   O2429     1.0  0.6250000000000002  0.8437499999999998  0.15625000000000003  1.0000
  O   O2430     1.0  0.6250000000000002  0.9062499999999998  0.15625000000000003  1.0000
  O   O2431     1.0  0.6250000000000002  0.9687499999999998  0.15625000000000003  1.0000
  O   O2432     1.0  0.6250000000000002  0.031249999999999993  0.15625000000000003  1.0000
  O   O2433     1.0  0.6562499999999999  0.062499999999999986  0.12500000000000006  1.0000
  O   O2434     1.0  0.6562499999999999  0.12499999999999997  0.12500000000000006  1.0000
  O   O2435     1.0  0.6562499999999999  0.18749999999999997  0.12500000000000006  1.0000
  O   O2436     1.0  0.6562499999999999  0.24999999999999994  0.12500000000000006  1.0000
  O   O2437     1.0  0.6562499999999999  0.3125  0.12500000000000006  1.0000
  O   O2438     1.0  0.6562499999999999  0.3749999999999999  0.12500000000000006  1.0000
  O   O2439     1.0  0.6562499999999999  0.4374999999999999  0.12500000000000006  1.0000
  O   O2440     1.0  0.6562499999999999  0.49999999999999983  0.12500000000000006  1.0000
  O   O2441     1.0  0.6562499999999999  0.5624999999999998  0.12500000000000006  1.0000
  O   O2442     1.0  0.6562499999999999  0.6249999999999998  0.12500000000000006  1.0000
  O   O2443     1.0  0.6562499999999999  0.6875  0.12500000000000006  1.0000
  O   O2444     1.0  0.6562499999999999  0.7499999999999999  0.12500000000000006  1.0000
  O   O2445     1.0  0.6562499999999999  0.8124999999999998  0.12500000000000006  1.0000
  O   O2446     1.0  0.6562499999999999  0.8749999999999998  0.12500000000000006  1.0000
  O   O2447     1.0  0.6562499999999999  0.9374999999999998  0.12500000000000006  1.0000
  O   O2448     1.0  0.6562499999999999  0.0  0.12500000000000006  1.0000
  O   O2449     1.0  0.6875000000000001  0.09374999999999999  0.09375000000000015  1.0000
  O   O2450     1.0  0.6875000000000001  0.15625  0.09375000000000015  1.0000
  O   O2451     1.0  0.6875000000000001  0.21874999999999994  0.09375000000000015  1.0000
  O   O2452     1.0  0.6875000000000001  0.2812499999999999  0.09375000000000015  1.0000
  O   O2453     1.0  0.6875000000000001  0.34375  0.09375000000000015  1.0000
  O   O2454     1.0  0.6875000000000001  0.4062499999999999  0.09375000000000015  1.0000
  O   O2455     1.0  0.6875000000000001  0.4687499999999999  0.09375000000000015  1.0000
  O   O2456     1.0  0.6875000000000001  0.53125  0.09375000000000015  1.0000
  O   O2457     1.0  0.6875000000000001  0.59375  0.09375000000000015  1.0000
  O   O2458     1.0  0.6875000000000001  0.6562499999999998  0.09375000000000015  1.0000
  O   O2459     1.0  0.6875000000000001  0.7187499999999999  0.09375000000000015  1.0000
  O   O2460     1.0  0.6875000000000001  0.7812499999999999  0.09375000000000015  1.0000
  O   O2461     1.0  0.6875000000000001  0.8437499999999998  0.09375000000000015  1.0000
  O   O2462     1.0  0.6875000000000001  0.9062499999999998  0.09375000000000015  1.0000
  O   O2463     1.0  0.6875000000000001  0.9687499999999998  0.09375000000000015  1.0000
  O   O2464     1.0  0.6875000000000001  0.031249999999999993  0.09375000000000015  1.0000
  O   O2465     1.0  0.71875  0.062499999999999986  0.06250000000000017  1.0000
  O   O2466     1.0  0.71875  0.12499999999999997  0.06250000000000017  1.0000
  O   O2467     1.0  0.71875  0.18749999999999997  0.06250000000000017  1.0000
  O   O2468     1.0  0.71875  0.24999999999999994  0.06250000000000017  1.0000
  O   O2469     1.0  0.71875  0.3124999999999999  0.06250000000000017  1.0000
  O   O2470     1.0  0.71875  0.3749999999999999  0.06250000000000017  1.0000
  O   O2471     1.0  0.71875  0.4374999999999999  0.06250000000000017  1.0000
  O   O2472     1.0  0.71875  0.49999999999999983  0.06250000000000017  1.0000
  O   O2473     1.0  0.71875  0.5624999999999998  0.06250000000000017  1.0000
  O   O2474     1.0  0.71875  0.625  0.06250000000000017  1.0000
  O   O2475     1.0  0.71875  0.6875  0.06250000000000017  1.0000
  O   O2476     1.0  0.71875  0.7499999999999999  0.06250000000000017  1.0000
  O   O2477     1.0  0.71875  0.8124999999999998  0.06250000000000017  1.0000
  O   O2478     1.0  0.71875  0.8749999999999998  0.06250000000000017  1.0000
  O   O2479     1.0  0.71875  0.9374999999999998  0.06250000000000017  1.0000
  O   O2480     1.0  0.71875  0.0  0.06250000000000017  1.0000
  O   O2481     1.0  0.75  0.09374999999999999  0.03125000000000017  1.0000
  O   O2482     1.0  0.75  0.15625  0.03125000000000017  1.0000
  O   O2483     1.0  0.75  0.21874999999999994  0.03125000000000017  1.0000
  O   O2484     1.0  0.75  0.28125  0.03125000000000017  1.0000
  O   O2485     1.0  0.75  0.34375  0.03125000000000017  1.0000
  O   O2486     1.0  0.75  0.4062499999999999  0.03125000000000017  1.0000
  O   O2487     1.0  0.75  0.4687499999999999  0.03125000000000017  1.0000
  O   O2488     1.0  0.75  0.53125  0.03125000000000017  1.0000
  O   O2489     1.0  0.75  0.5937499999999998  0.03125000000000017  1.0000
  O   O2490     1.0  0.75  0.6562499999999998  0.03125000000000017  1.0000
  O   O2491     1.0  0.75  0.7187499999999999  0.03125000000000017  1.0000
  O   O2492     1.0  0.75  0.7812499999999999  0.03125000000000017  1.0000
  O   O2493     1.0  0.75  0.8437499999999998  0.03125000000000017  1.0000
  O   O2494     1.0  0.75  0.9062499999999998  0.03125000000000017  1.0000
  O   O2495     1.0  0.75  0.9687499999999998  0.03125000000000017  1.0000
  O   O2496     1.0  0.75  0.031249999999999993  0.03125000000000017  1.0000
  O   O2497     1.0  0.03125  0.062499999999999986  0.8125  1.0000
  O   O2498     1.0  0.03125  0.12499999999999997  0.8125  1.0000
  O   O2499     1.0  0.03125  0.18749999999999997  0.8125  1.0000
  O   O2500     1.0  0.03125  0.24999999999999994  0.8125  1.0000
  O   O2501     1.0  0.03125  0.3125  0.8125  1.0000
  O   O2502     1.0  0.03125  0.37499999999999994  0.8125  1.0000
  O   O2503     1.0  0.03125  0.4374999999999999  0.8125  1.0000
  O   O2504     1.0  0.03125  0.49999999999999983  0.8125  1.0000
  O   O2505     1.0  0.03125  0.5624999999999998  0.8125  1.0000
  O   O2506     1.0  0.03125  0.6249999999999998  0.8125  1.0000
  O   O2507     1.0  0.03125  0.6874999999999998  0.8125  1.0000
  O   O2508     1.0  0.03125  0.7499999999999999  0.8125  1.0000
  O   O2509     1.0  0.03125  0.8124999999999998  0.8125  1.0000
  O   O2510     1.0  0.03125  0.8749999999999998  0.8125  1.0000
  O   O2511     1.0  0.03125  0.9374999999999998  0.8125  1.0000
  O   O2512     1.0  0.03125  0.9999999999999999  0.8125  1.0000
  O   O2513     1.0  0.0625  0.09374999999999999  0.78125  1.0000
  O   O2514     1.0  0.0625  0.15625  0.78125  1.0000
  O   O2515     1.0  0.0625  0.21874999999999994  0.78125  1.0000
  O   O2516     1.0  0.0625  0.2812499999999999  0.78125  1.0000
  O   O2517     1.0  0.0625  0.3437499999999999  0.78125  1.0000
  O   O2518     1.0  0.0625  0.4062499999999999  0.78125  1.0000
  O   O2519     1.0  0.0625  0.4687499999999999  0.78125  1.0000
  O   O2520     1.0  0.0625  0.5312499999999999  0.78125  1.0000
  O   O2521     1.0  0.0625  0.59375  0.78125  1.0000
  O   O2522     1.0  0.0625  0.65625  0.78125  1.0000
  O   O2523     1.0  0.0625  0.7187499999999999  0.78125  1.0000
  O   O2524     1.0  0.0625  0.7812499999999999  0.78125  1.0000
  O   O2525     1.0  0.0625  0.8437499999999998  0.78125  1.0000
  O   O2526     1.0  0.0625  0.9062499999999998  0.78125  1.0000
  O   O2527     1.0  0.0625  0.9687499999999998  0.78125  1.0000
  O   O2528     1.0  0.0625  0.031249999999999993  0.78125  1.0000
  O   O2529     1.0  0.09375  0.062499999999999986  0.75  1.0000
  O   O2530     1.0  0.09375  0.12499999999999997  0.75  1.0000
  O   O2531     1.0  0.09375  0.18749999999999997  0.75  1.0000
  O   O2532     1.0  0.09375  0.24999999999999994  0.75  1.0000
  O   O2533     1.0  0.09375  0.3125  0.75  1.0000
  O   O2534     1.0  0.09375  0.37499999999999994  0.75  1.0000
  O   O2535     1.0  0.09375  0.4374999999999999  0.75  1.0000
  O   O2536     1.0  0.09375  0.49999999999999983  0.75  1.0000
  O   O2537     1.0  0.09375  0.5624999999999998  0.75  1.0000
  O   O2538     1.0  0.09375  0.6249999999999998  0.75  1.0000
  O   O2539     1.0  0.09375  0.6874999999999998  0.75  1.0000
  O   O2540     1.0  0.09375  0.7499999999999999  0.75  1.0000
  O   O2541     1.0  0.09375  0.8124999999999998  0.75  1.0000
  O   O2542     1.0  0.09375  0.8749999999999998  0.75  1.0000
  O   O2543     1.0  0.09375  0.9374999999999998  0.75  1.0000
  O   O2544     1.0  0.09375  0.9999999999999999  0.75  1.0000
  O   O2545     1.0  0.125  0.09374999999999999  0.71875  1.0000
  O   O2546     1.0  0.125  0.15625  0.71875  1.0000
  O   O2547     1.0  0.125  0.21874999999999994  0.71875  1.0000
  O   O2548     1.0  0.125  0.2812499999999999  0.71875  1.0000
  O   O2549     1.0  0.125  0.3437499999999999  0.71875  1.0000
  O   O2550     1.0  0.125  0.4062499999999999  0.71875  1.0000
  O   O2551     1.0  0.125  0.4687499999999999  0.71875  1.0000
  O   O2552     1.0  0.125  0.53125  0.71875  1.0000
  O   O2553     1.0  0.125  0.59375  0.71875  1.0000
  O   O2554     1.0  0.125  0.6562499999999998  0.71875  1.0000
  O   O2555     1.0  0.125  0.7187499999999999  0.71875  1.0000
  O   O2556     1.0  0.125  0.7812500000000001  0.71875  1.0000
  O   O2557     1.0  0.125  0.8437499999999998  0.71875  1.0000
  O   O2558     1.0  0.125  0.9062499999999998  0.71875  1.0000
  O   O2559     1.0  0.125  0.9687499999999998  0.71875  1.0000
  O   O2560     1.0  0.125  0.031249999999999993  0.71875  1.0000
  O   O2561     1.0  0.15625000000000006  0.062499999999999986  0.6875000000000001  1.0000
  O   O2562     1.0  0.15625000000000006  0.12499999999999997  0.6875000000000001  1.0000
  O   O2563     1.0  0.15625000000000006  0.18749999999999997  0.6875000000000001  1.0000
  O   O2564     1.0  0.15625000000000006  0.24999999999999994  0.6875000000000001  1.0000
  O   O2565     1.0  0.15625000000000006  0.3125  0.6875000000000001  1.0000
  O   O2566     1.0  0.15625000000000006  0.3749999999999999  0.6875000000000001  1.0000
  O   O2567     1.0  0.15625000000000006  0.4374999999999999  0.6875000000000001  1.0000
  O   O2568     1.0  0.15625000000000006  0.49999999999999983  0.6875000000000001  1.0000
  O   O2569     1.0  0.15625000000000006  0.5624999999999998  0.6875000000000001  1.0000
  O   O2570     1.0  0.15625000000000006  0.6249999999999998  0.6875000000000001  1.0000
  O   O2571     1.0  0.15625000000000006  0.6875  0.6875000000000001  1.0000
  O   O2572     1.0  0.15625000000000006  0.7499999999999999  0.6875000000000001  1.0000
  O   O2573     1.0  0.15625000000000006  0.8124999999999998  0.6875000000000001  1.0000
  O   O2574     1.0  0.15625000000000006  0.8749999999999998  0.6875000000000001  1.0000
  O   O2575     1.0  0.15625000000000006  0.9374999999999998  0.6875000000000001  1.0000
  O   O2576     1.0  0.15625000000000006  0.0  0.6875000000000001  1.0000
  O   O2577     1.0  0.1875  0.09374999999999999  0.6562500000000001  1.0000
  O   O2578     1.0  0.1875  0.15625  0.6562500000000001  1.0000
  O   O2579     1.0  0.1875  0.21874999999999994  0.6562500000000001  1.0000
  O   O2580     1.0  0.1875  0.2812499999999999  0.6562500000000001  1.0000
  O   O2581     1.0  0.1875  0.34375  0.6562500000000001  1.0000
  O   O2582     1.0  0.1875  0.4062499999999999  0.6562500000000001  1.0000
  O   O2583     1.0  0.1875  0.4687499999999999  0.6562500000000001  1.0000
  O   O2584     1.0  0.1875  0.53125  0.6562500000000001  1.0000
  O   O2585     1.0  0.1875  0.59375  0.6562500000000001  1.0000
  O   O2586     1.0  0.1875  0.6562499999999998  0.6562500000000001  1.0000
  O   O2587     1.0  0.1875  0.7187499999999999  0.6562500000000001  1.0000
  O   O2588     1.0  0.1875  0.7812499999999999  0.6562500000000001  1.0000
  O   O2589     1.0  0.1875  0.8437499999999998  0.6562500000000001  1.0000
  O   O2590     1.0  0.1875  0.9062499999999998  0.6562500000000001  1.0000
  O   O2591     1.0  0.1875  0.9687499999999998  0.6562500000000001  1.0000
  O   O2592     1.0  0.1875  0.031249999999999993  0.6562500000000001  1.0000
  O   O2593     1.0  0.2187499999999999  0.062499999999999986  0.6250000000000001  1.0000
  O   O2594     1.0  0.2187499999999999  0.12499999999999997  0.6250000000000001  1.0000
  O   O2595     1.0  0.2187499999999999  0.18749999999999997  0.6250000000000001  1.0000
  O   O2596     1.0  0.2187499999999999  0.24999999999999994  0.6250000000000001  1.0000
  O   O2597     1.0  0.2187499999999999  0.3124999999999999  0.6250000000000001  1.0000
  O   O2598     1.0  0.2187499999999999  0.3749999999999999  0.6250000000000001  1.0000
  O   O2599     1.0  0.2187499999999999  0.4374999999999999  0.6250000000000001  1.0000
  O   O2600     1.0  0.2187499999999999  0.49999999999999983  0.6250000000000001  1.0000
  O   O2601     1.0  0.2187499999999999  0.5624999999999998  0.6250000000000001  1.0000
  O   O2602     1.0  0.2187499999999999  0.6249999999999998  0.6250000000000001  1.0000
  O   O2603     1.0  0.2187499999999999  0.6875  0.6250000000000001  1.0000
  O   O2604     1.0  0.2187499999999999  0.7499999999999999  0.6250000000000001  1.0000
  O   O2605     1.0  0.2187499999999999  0.8124999999999998  0.6250000000000001  1.0000
  O   O2606     1.0  0.2187499999999999  0.8750000000000001  0.6250000000000001  1.0000
  O   O2607     1.0  0.2187499999999999  0.9374999999999998  0.6250000000000001  1.0000
  O   O2608     1.0  0.2187499999999999  0.0  0.6250000000000001  1.0000
  O   O2609     1.0  0.24999999999999992  0.09374999999999999  0.5937500000000001  1.0000
  O   O2610     1.0  0.24999999999999992  0.15625  0.5937500000000001  1.0000
  O   O2611     1.0  0.24999999999999992  0.21874999999999994  0.5937500000000001  1.0000
  O   O2612     1.0  0.24999999999999992  0.28125  0.5937500000000001  1.0000
  O   O2613     1.0  0.24999999999999992  0.34375  0.5937500000000001  1.0000
  O   O2614     1.0  0.24999999999999992  0.4062499999999999  0.5937500000000001  1.0000
  O   O2615     1.0  0.24999999999999992  0.4687499999999999  0.5937500000000001  1.0000
  O   O2616     1.0  0.24999999999999992  0.53125  0.5937500000000001  1.0000
  O   O2617     1.0  0.24999999999999992  0.5937499999999998  0.5937500000000001  1.0000
  O   O2618     1.0  0.24999999999999992  0.6562499999999998  0.5937500000000001  1.0000
  O   O2619     1.0  0.24999999999999992  0.7187499999999999  0.5937500000000001  1.0000
  O   O2620     1.0  0.24999999999999992  0.7812499999999999  0.5937500000000001  1.0000
  O   O2621     1.0  0.24999999999999992  0.8437499999999998  0.5937500000000001  1.0000
  O   O2622     1.0  0.24999999999999992  0.9062499999999998  0.5937500000000001  1.0000
  O   O2623     1.0  0.24999999999999992  0.9687499999999998  0.5937500000000001  1.0000
  O   O2624     1.0  0.24999999999999992  0.031249999999999993  0.5937500000000001  1.0000
  O   O2625     1.0  0.28125  0.062499999999999986  0.5625000000000001  1.0000
  O   O2626     1.0  0.28125  0.12499999999999997  0.5625000000000001  1.0000
  O   O2627     1.0  0.28125  0.18749999999999997  0.5625000000000001  1.0000
  O   O2628     1.0  0.28125  0.24999999999999994  0.5625000000000001  1.0000
  O   O2629     1.0  0.28125  0.3124999999999999  0.5625000000000001  1.0000
  O   O2630     1.0  0.28125  0.3749999999999999  0.5625000000000001  1.0000
  O   O2631     1.0  0.28125  0.4374999999999999  0.5625000000000001  1.0000
  O   O2632     1.0  0.28125  0.49999999999999983  0.5625000000000001  1.0000
  O   O2633     1.0  0.28125  0.5625  0.5625000000000001  1.0000
  O   O2634     1.0  0.28125  0.625  0.5625000000000001  1.0000
  O   O2635     1.0  0.28125  0.6875  0.5625000000000001  1.0000
  O   O2636     1.0  0.28125  0.7499999999999999  0.5625000000000001  1.0000
  O   O2637     1.0  0.28125  0.8124999999999998  0.5625000000000001  1.0000
  O   O2638     1.0  0.28125  0.8750000000000001  0.5625000000000001  1.0000
  O   O2639     1.0  0.28125  0.9374999999999998  0.5625000000000001  1.0000
  O   O2640     1.0  0.28125  0.0  0.5625000000000001  1.0000
  O   O2641     1.0  0.3125  0.09374999999999999  0.53125  1.0000
  O   O2642     1.0  0.3125  0.15625  0.53125  1.0000
  O   O2643     1.0  0.3125  0.21874999999999994  0.53125  1.0000
  O   O2644     1.0  0.3125  0.28125  0.53125  1.0000
  O   O2645     1.0  0.3125  0.34375  0.53125  1.0000
  O   O2646     1.0  0.3125  0.4062499999999999  0.53125  1.0000
  O   O2647     1.0  0.3125  0.4687499999999999  0.53125  1.0000
  O   O2648     1.0  0.3125  0.5312499999999999  0.53125  1.0000
  O   O2649     1.0  0.3125  0.5937499999999998  0.53125  1.0000
  O   O2650     1.0  0.3125  0.6562499999999998  0.53125  1.0000
  O   O2651     1.0  0.3125  0.7187499999999999  0.53125  1.0000
  O   O2652     1.0  0.3125  0.7812499999999999  0.53125  1.0000
  O   O2653     1.0  0.3125  0.8437499999999998  0.53125  1.0000
  O   O2654     1.0  0.3125  0.9062499999999998  0.53125  1.0000
  O   O2655     1.0  0.3125  0.9687499999999998  0.53125  1.0000
  O   O2656     1.0  0.3125  0.031249999999999993  0.53125  1.0000
  O   O2657     1.0  0.34375  0.062499999999999986  0.5  1.0000
  O   O2658     1.0  0.34375  0.12499999999999997  0.5  1.0000
  O   O2659     1.0  0.34375  0.18749999999999997  0.5  1.0000
  O   O2660     1.0  0.34375  0.24999999999999994  0.5  1.0000
  O   O2661     1.0  0.34375  0.3124999999999999  0.5  1.0000
  O   O2662     1.0  0.34375  0.3749999999999999  0.5  1.0000
  O   O2663     1.0  0.34375  0.4374999999999999  0.5  1.0000
  O   O2664     1.0  0.34375  0.49999999999999983  0.5  1.0000
  O   O2665     1.0  0.34375  0.5625  0.5  1.0000
  O   O2666     1.0  0.34375  0.625  0.5  1.0000
  O   O2667     1.0  0.34375  0.6875  0.5  1.0000
  O   O2668     1.0  0.34375  0.7499999999999999  0.5  1.0000
  O   O2669     1.0  0.34375  0.8124999999999998  0.5  1.0000
  O   O2670     1.0  0.34375  0.8749999999999998  0.5  1.0000
  O   O2671     1.0  0.34375  0.9374999999999998  0.5  1.0000
  O   O2672     1.0  0.34375  0.0  0.5  1.0000
  O   O2673     1.0  0.375  0.09374999999999999  0.4687499999999999  1.0000
  O   O2674     1.0  0.375  0.15625  0.4687499999999999  1.0000
  O   O2675     1.0  0.375  0.21874999999999994  0.4687499999999999  1.0000
  O   O2676     1.0  0.375  0.28125  0.4687499999999999  1.0000
  O   O2677     1.0  0.375  0.34375  0.4687499999999999  1.0000
  O   O2678     1.0  0.375  0.4062499999999999  0.4687499999999999  1.0000
  O   O2679     1.0  0.375  0.4687499999999999  0.4687499999999999  1.0000
  O   O2680     1.0  0.375  0.5312499999999999  0.4687499999999999  1.0000
  O   O2681     1.0  0.375  0.5937499999999998  0.4687499999999999  1.0000
  O   O2682     1.0  0.375  0.6562499999999998  0.4687499999999999  1.0000
  O   O2683     1.0  0.375  0.7187499999999999  0.4687499999999999  1.0000
  O   O2684     1.0  0.375  0.7812499999999999  0.4687499999999999  1.0000
  O   O2685     1.0  0.375  0.8437499999999998  0.4687499999999999  1.0000
  O   O2686     1.0  0.375  0.9062499999999998  0.4687499999999999  1.0000
  O   O2687     1.0  0.375  0.9687499999999998  0.4687499999999999  1.0000
  O   O2688     1.0  0.375  0.031249999999999993  0.4687499999999999  1.0000
  O   O2689     1.0  0.4062499999999999  0.062499999999999986  0.43749999999999994  1.0000
  O   O2690     1.0  0.4062499999999999  0.12499999999999997  0.43749999999999994  1.0000
  O   O2691     1.0  0.4062499999999999  0.18749999999999997  0.43749999999999994  1.0000
  O   O2692     1.0  0.4062499999999999  0.24999999999999983  0.43749999999999994  1.0000
  O   O2693     1.0  0.4062499999999999  0.3124999999999999  0.43749999999999994  1.0000
  O   O2694     1.0  0.4062499999999999  0.37499999999999994  0.43749999999999994  1.0000
  O   O2695     1.0  0.4062499999999999  0.4374999999999999  0.43749999999999994  1.0000
  O   O2696     1.0  0.4062499999999999  0.4999999999999999  0.43749999999999994  1.0000
  O   O2697     1.0  0.4062499999999999  0.5625  0.43749999999999994  1.0000
  O   O2698     1.0  0.4062499999999999  0.625  0.43749999999999994  1.0000
  O   O2699     1.0  0.4062499999999999  0.6875  0.43749999999999994  1.0000
  O   O2700     1.0  0.4062499999999999  0.7500000000000001  0.43749999999999994  1.0000
  O   O2701     1.0  0.4062499999999999  0.8124999999999998  0.43749999999999994  1.0000
  O   O2702     1.0  0.4062499999999999  0.8749999999999998  0.43749999999999994  1.0000
  O   O2703     1.0  0.4062499999999999  0.9374999999999998  0.43749999999999994  1.0000
  O   O2704     1.0  0.4062499999999999  0.0  0.43749999999999994  1.0000
  O   O2705     1.0  0.4374999999999999  0.09374999999999999  0.40624999999999994  1.0000
  O   O2706     1.0  0.4374999999999999  0.15625  0.40624999999999994  1.0000
  O   O2707     1.0  0.4374999999999999  0.21874999999999994  0.40624999999999994  1.0000
  O   O2708     1.0  0.4374999999999999  0.28125  0.40624999999999994  1.0000
  O   O2709     1.0  0.4374999999999999  0.3437499999999999  0.40624999999999994  1.0000
  O   O2710     1.0  0.4374999999999999  0.4062499999999999  0.40624999999999994  1.0000
  O   O2711     1.0  0.4374999999999999  0.4687499999999999  0.40624999999999994  1.0000
  O   O2712     1.0  0.4374999999999999  0.5312499999999999  0.40624999999999994  1.0000
  O   O2713     1.0  0.4374999999999999  0.5937499999999998  0.40624999999999994  1.0000
  O   O2714     1.0  0.4374999999999999  0.65625  0.40624999999999994  1.0000
  O   O2715     1.0  0.4374999999999999  0.7187499999999999  0.40624999999999994  1.0000
  O   O2716     1.0  0.4374999999999999  0.7812499999999999  0.40624999999999994  1.0000
  O   O2717     1.0  0.4374999999999999  0.8437499999999998  0.40624999999999994  1.0000
  O   O2718     1.0  0.4374999999999999  0.9062499999999998  0.40624999999999994  1.0000
  O   O2719     1.0  0.4374999999999999  0.9687499999999998  0.40624999999999994  1.0000
  O   O2720     1.0  0.4374999999999999  0.031249999999999993  0.40624999999999994  1.0000
  O   O2721     1.0  0.4687499999999999  0.062499999999999986  0.375  1.0000
  O   O2722     1.0  0.4687499999999999  0.12499999999999997  0.375  1.0000
  O   O2723     1.0  0.4687499999999999  0.18749999999999997  0.375  1.0000
  O   O2724     1.0  0.4687499999999999  0.24999999999999983  0.375  1.0000
  O   O2725     1.0  0.4687499999999999  0.3125  0.375  1.0000
  O   O2726     1.0  0.4687499999999999  0.37499999999999994  0.375  1.0000
  O   O2727     1.0  0.4687499999999999  0.4374999999999999  0.375  1.0000
  O   O2728     1.0  0.4687499999999999  0.49999999999999983  0.375  1.0000
  O   O2729     1.0  0.4687499999999999  0.5625  0.375  1.0000
  O   O2730     1.0  0.4687499999999999  0.6249999999999998  0.375  1.0000
  O   O2731     1.0  0.4687499999999999  0.6875  0.375  1.0000
  O   O2732     1.0  0.4687499999999999  0.7500000000000001  0.375  1.0000
  O   O2733     1.0  0.4687499999999999  0.8124999999999998  0.375  1.0000
  O   O2734     1.0  0.4687499999999999  0.8749999999999998  0.375  1.0000
  O   O2735     1.0  0.4687499999999999  0.9374999999999998  0.375  1.0000
  O   O2736     1.0  0.4687499999999999  0.0  0.375  1.0000
  O   O2737     1.0  0.49999999999999994  0.09374999999999999  0.34375000000000006  1.0000
  O   O2738     1.0  0.49999999999999994  0.15625  0.34375000000000006  1.0000
  O   O2739     1.0  0.49999999999999994  0.21874999999999994  0.34375000000000006  1.0000
  O   O2740     1.0  0.49999999999999994  0.28125  0.34375000000000006  1.0000
  O   O2741     1.0  0.49999999999999994  0.3437499999999999  0.34375000000000006  1.0000
  O   O2742     1.0  0.49999999999999994  0.4062499999999999  0.34375000000000006  1.0000
  O   O2743     1.0  0.49999999999999994  0.4687499999999999  0.34375000000000006  1.0000
  O   O2744     1.0  0.49999999999999994  0.5312499999999999  0.34375000000000006  1.0000
  O   O2745     1.0  0.49999999999999994  0.5937499999999998  0.34375000000000006  1.0000
  O   O2746     1.0  0.49999999999999994  0.65625  0.34375000000000006  1.0000
  O   O2747     1.0  0.49999999999999994  0.7187499999999999  0.34375000000000006  1.0000
  O   O2748     1.0  0.49999999999999994  0.7812499999999999  0.34375000000000006  1.0000
  O   O2749     1.0  0.49999999999999994  0.8437500000000001  0.34375000000000006  1.0000
  O   O2750     1.0  0.49999999999999994  0.9062499999999998  0.34375000000000006  1.0000
  O   O2751     1.0  0.49999999999999994  0.9687499999999998  0.34375000000000006  1.0000
  O   O2752     1.0  0.49999999999999994  0.031249999999999993  0.34375000000000006  1.0000
  O   O2753     1.0  0.5312499999999999  0.062499999999999986  0.31250000000000006  1.0000
  O   O2754     1.0  0.5312499999999999  0.12499999999999997  0.31250000000000006  1.0000
  O   O2755     1.0  0.5312499999999999  0.18749999999999997  0.31250000000000006  1.0000
  O   O2756     1.0  0.5312499999999999  0.24999999999999994  0.31250000000000006  1.0000
  O   O2757     1.0  0.5312499999999999  0.3125  0.31250000000000006  1.0000
  O   O2758     1.0  0.5312499999999999  0.37499999999999994  0.31250000000000006  1.0000
  O   O2759     1.0  0.5312499999999999  0.4374999999999999  0.31250000000000006  1.0000
  O   O2760     1.0  0.5312499999999999  0.49999999999999983  0.31250000000000006  1.0000
  O   O2761     1.0  0.5312499999999999  0.5624999999999998  0.31250000000000006  1.0000
  O   O2762     1.0  0.5312499999999999  0.6249999999999998  0.31250000000000006  1.0000
  O   O2763     1.0  0.5312499999999999  0.6875  0.31250000000000006  1.0000
  O   O2764     1.0  0.5312499999999999  0.7499999999999999  0.31250000000000006  1.0000
  O   O2765     1.0  0.5312499999999999  0.8124999999999998  0.31250000000000006  1.0000
  O   O2766     1.0  0.5312499999999999  0.8749999999999998  0.31250000000000006  1.0000
  O   O2767     1.0  0.5312499999999999  0.9374999999999998  0.31250000000000006  1.0000
  O   O2768     1.0  0.5312499999999999  0.0  0.31250000000000006  1.0000
  O   O2769     1.0  0.5624999999999999  0.09374999999999999  0.28125000000000006  1.0000
  O   O2770     1.0  0.5624999999999999  0.15625  0.28125000000000006  1.0000
  O   O2771     1.0  0.5624999999999999  0.21874999999999994  0.28125000000000006  1.0000
  O   O2772     1.0  0.5624999999999999  0.2812499999999999  0.28125000000000006  1.0000
  O   O2773     1.0  0.5624999999999999  0.3437499999999999  0.28125000000000006  1.0000
  O   O2774     1.0  0.5624999999999999  0.4062499999999999  0.28125000000000006  1.0000
  O   O2775     1.0  0.5624999999999999  0.4687499999999999  0.28125000000000006  1.0000
  O   O2776     1.0  0.5624999999999999  0.53125  0.28125000000000006  1.0000
  O   O2777     1.0  0.5624999999999999  0.59375  0.28125000000000006  1.0000
  O   O2778     1.0  0.5624999999999999  0.65625  0.28125000000000006  1.0000
  O   O2779     1.0  0.5624999999999999  0.7187499999999999  0.28125000000000006  1.0000
  O   O2780     1.0  0.5624999999999999  0.7812499999999999  0.28125000000000006  1.0000
  O   O2781     1.0  0.5624999999999999  0.8437500000000001  0.28125000000000006  1.0000
  O   O2782     1.0  0.5624999999999999  0.9062499999999998  0.28125000000000006  1.0000
  O   O2783     1.0  0.5624999999999999  0.9687499999999998  0.28125000000000006  1.0000
  O   O2784     1.0  0.5624999999999999  0.031249999999999993  0.28125000000000006  1.0000
  O   O2785     1.0  0.5937499999999999  0.062499999999999986  0.25  1.0000
  O   O2786     1.0  0.5937499999999999  0.12499999999999997  0.25  1.0000
  O   O2787     1.0  0.5937499999999999  0.18749999999999997  0.25  1.0000
  O   O2788     1.0  0.5937499999999999  0.24999999999999994  0.25  1.0000
  O   O2789     1.0  0.5937499999999999  0.3125  0.25  1.0000
  O   O2790     1.0  0.5937499999999999  0.37499999999999994  0.25  1.0000
  O   O2791     1.0  0.5937499999999999  0.4374999999999999  0.25  1.0000
  O   O2792     1.0  0.5937499999999999  0.49999999999999983  0.25  1.0000
  O   O2793     1.0  0.5937499999999999  0.5624999999999998  0.25  1.0000
  O   O2794     1.0  0.5937499999999999  0.6249999999999998  0.25  1.0000
  O   O2795     1.0  0.5937499999999999  0.6875  0.25  1.0000
  O   O2796     1.0  0.5937499999999999  0.7499999999999999  0.25  1.0000
  O   O2797     1.0  0.5937499999999999  0.8124999999999998  0.25  1.0000
  O   O2798     1.0  0.5937499999999999  0.8749999999999998  0.25  1.0000
  O   O2799     1.0  0.5937499999999999  0.9374999999999998  0.25  1.0000
  O   O2800     1.0  0.5937499999999999  0.0  0.25  1.0000
  O   O2801     1.0  0.6250000000000002  0.09374999999999999  0.21875000000000006  1.0000
  O   O2802     1.0  0.6250000000000002  0.15625  0.21875000000000006  1.0000
  O   O2803     1.0  0.6250000000000002  0.21874999999999994  0.21875000000000006  1.0000
  O   O2804     1.0  0.6250000000000002  0.2812499999999999  0.21875000000000006  1.0000
  O   O2805     1.0  0.6250000000000002  0.3437499999999999  0.21875000000000006  1.0000
  O   O2806     1.0  0.6250000000000002  0.4062499999999999  0.21875000000000006  1.0000
  O   O2807     1.0  0.6250000000000002  0.4687499999999999  0.21875000000000006  1.0000
  O   O2808     1.0  0.6250000000000002  0.53125  0.21875000000000006  1.0000
  O   O2809     1.0  0.6250000000000002  0.59375  0.21875000000000006  1.0000
  O   O2810     1.0  0.6250000000000002  0.6562499999999998  0.21875000000000006  1.0000
  O   O2811     1.0  0.6250000000000002  0.7187499999999999  0.21875000000000006  1.0000
  O   O2812     1.0  0.6250000000000002  0.7812499999999999  0.21875000000000006  1.0000
  O   O2813     1.0  0.6250000000000002  0.8437499999999998  0.21875000000000006  1.0000
  O   O2814     1.0  0.6250000000000002  0.9062499999999998  0.21875000000000006  1.0000
  O   O2815     1.0  0.6250000000000002  0.9687499999999998  0.21875000000000006  1.0000
  O   O2816     1.0  0.6250000000000002  0.031249999999999993  0.21875000000000006  1.0000
  O   O2817     1.0  0.65625  0.062499999999999986  0.18750000000000006  1.0000
  O   O2818     1.0  0.65625  0.12499999999999997  0.18750000000000006  1.0000
  O   O2819     1.0  0.65625  0.18749999999999997  0.18750000000000006  1.0000
  O   O2820     1.0  0.65625  0.24999999999999994  0.18750000000000006  1.0000
  O   O2821     1.0  0.65625  0.3125  0.18750000000000006  1.0000
  O   O2822     1.0  0.65625  0.3749999999999999  0.18750000000000006  1.0000
  O   O2823     1.0  0.65625  0.4374999999999999  0.18750000000000006  1.0000
  O   O2824     1.0  0.65625  0.49999999999999983  0.18750000000000006  1.0000
  O   O2825     1.0  0.65625  0.5624999999999998  0.18750000000000006  1.0000
  O   O2826     1.0  0.65625  0.6249999999999998  0.18750000000000006  1.0000
  O   O2827     1.0  0.65625  0.6875  0.18750000000000006  1.0000
  O   O2828     1.0  0.65625  0.7499999999999999  0.18750000000000006  1.0000
  O   O2829     1.0  0.65625  0.8124999999999998  0.18750000000000006  1.0000
  O   O2830     1.0  0.65625  0.8749999999999998  0.18750000000000006  1.0000
  O   O2831     1.0  0.65625  0.9374999999999998  0.18750000000000006  1.0000
  O   O2832     1.0  0.65625  0.0  0.18750000000000006  1.0000
  O   O2833     1.0  0.6875000000000001  0.09374999999999999  0.15625000000000003  1.0000
  O   O2834     1.0  0.6875000000000001  0.15625  0.15625000000000003  1.0000
  O   O2835     1.0  0.6875000000000001  0.21874999999999994  0.15625000000000003  1.0000
  O   O2836     1.0  0.6875000000000001  0.2812499999999999  0.15625000000000003  1.0000
  O   O2837     1.0  0.6875000000000001  0.34375  0.15625000000000003  1.0000
  O   O2838     1.0  0.6875000000000001  0.4062499999999999  0.15625000000000003  1.0000
  O   O2839     1.0  0.6875000000000001  0.4687499999999999  0.15625000000000003  1.0000
  O   O2840     1.0  0.6875000000000001  0.53125  0.15625000000000003  1.0000
  O   O2841     1.0  0.6875000000000001  0.59375  0.15625000000000003  1.0000
  O   O2842     1.0  0.6875000000000001  0.6562499999999998  0.15625000000000003  1.0000
  O   O2843     1.0  0.6875000000000001  0.7187499999999999  0.15625000000000003  1.0000
  O   O2844     1.0  0.6875000000000001  0.7812499999999999  0.15625000000000003  1.0000
  O   O2845     1.0  0.6875000000000001  0.8437499999999998  0.15625000000000003  1.0000
  O   O2846     1.0  0.6875000000000001  0.9062499999999998  0.15625000000000003  1.0000
  O   O2847     1.0  0.6875000000000001  0.9687499999999998  0.15625000000000003  1.0000
  O   O2848     1.0  0.6875000000000001  0.031249999999999993  0.15625000000000003  1.0000
  O   O2849     1.0  0.7187499999999999  0.062499999999999986  0.12500000000000006  1.0000
  O   O2850     1.0  0.7187499999999999  0.12499999999999997  0.12500000000000006  1.0000
  O   O2851     1.0  0.7187499999999999  0.18749999999999997  0.12500000000000006  1.0000
  O   O2852     1.0  0.7187499999999999  0.24999999999999994  0.12500000000000006  1.0000
  O   O2853     1.0  0.7187499999999999  0.3124999999999999  0.12500000000000006  1.0000
  O   O2854     1.0  0.7187499999999999  0.3749999999999999  0.12500000000000006  1.0000
  O   O2855     1.0  0.7187499999999999  0.4374999999999999  0.12500000000000006  1.0000
  O   O2856     1.0  0.7187499999999999  0.49999999999999983  0.12500000000000006  1.0000
  O   O2857     1.0  0.7187499999999999  0.5624999999999998  0.12500000000000006  1.0000
  O   O2858     1.0  0.7187499999999999  0.625  0.12500000000000006  1.0000
  O   O2859     1.0  0.7187499999999999  0.6875  0.12500000000000006  1.0000
  O   O2860     1.0  0.7187499999999999  0.7499999999999999  0.12500000000000006  1.0000
  O   O2861     1.0  0.7187499999999999  0.8124999999999998  0.12500000000000006  1.0000
  O   O2862     1.0  0.7187499999999999  0.8749999999999998  0.12500000000000006  1.0000
  O   O2863     1.0  0.7187499999999999  0.9374999999999998  0.12500000000000006  1.0000
  O   O2864     1.0  0.7187499999999999  0.0  0.12500000000000006  1.0000
  O   O2865     1.0  0.75  0.09374999999999999  0.09375000000000004  1.0000
  O   O2866     1.0  0.75  0.15625  0.09375000000000004  1.0000
  O   O2867     1.0  0.75  0.21874999999999994  0.09375000000000004  1.0000
  O   O2868     1.0  0.75  0.28125  0.09375000000000004  1.0000
  O   O2869     1.0  0.75  0.34375  0.09375000000000004  1.0000
  O   O2870     1.0  0.75  0.4062499999999999  0.09375000000000004  1.0000
  O   O2871     1.0  0.75  0.4687499999999999  0.09375000000000004  1.0000
  O   O2872     1.0  0.75  0.53125  0.09375000000000004  1.0000
  O   O2873     1.0  0.75  0.5937499999999998  0.09375000000000004  1.0000
  O   O2874     1.0  0.75  0.6562499999999998  0.09375000000000004  1.0000
  O   O2875     1.0  0.75  0.7187499999999999  0.09375000000000004  1.0000
  O   O2876     1.0  0.75  0.7812499999999999  0.09375000000000004  1.0000
  O   O2877     1.0  0.75  0.8437499999999998  0.09375000000000004  1.0000
  O   O2878     1.0  0.75  0.9062499999999998  0.09375000000000004  1.0000
  O   O2879     1.0  0.75  0.9687499999999998  0.09375000000000004  1.0000
  O   O2880     1.0  0.75  0.031249999999999993  0.09375000000000004  1.0000
  O   O2881     1.0  0.7812499999999999  0.062499999999999986  0.06250000000000006  1.0000
  O   O2882     1.0  0.7812499999999999  0.12499999999999997  0.06250000000000006  1.0000
  O   O2883     1.0  0.7812499999999999  0.18749999999999997  0.06250000000000006  1.0000
  O   O2884     1.0  0.7812499999999999  0.24999999999999994  0.06250000000000006  1.0000
  O   O2885     1.0  0.7812499999999999  0.3124999999999999  0.06250000000000006  1.0000
  O   O2886     1.0  0.7812499999999999  0.3749999999999999  0.06250000000000006  1.0000
  O   O2887     1.0  0.7812499999999999  0.4374999999999999  0.06250000000000006  1.0000
  O   O2888     1.0  0.7812499999999999  0.49999999999999983  0.06250000000000006  1.0000
  O   O2889     1.0  0.7812499999999999  0.5624999999999998  0.06250000000000006  1.0000
  O   O2890     1.0  0.7812499999999999  0.625  0.06250000000000006  1.0000
  O   O2891     1.0  0.7812499999999999  0.6875  0.06250000000000006  1.0000
  O   O2892     1.0  0.7812499999999999  0.7499999999999999  0.06250000000000006  1.0000
  O   O2893     1.0  0.7812499999999999  0.8125000000000001  0.06250000000000006  1.0000
  O   O2894     1.0  0.7812499999999999  0.8749999999999998  0.06250000000000006  1.0000
  O   O2895     1.0  0.7812499999999999  0.9374999999999998  0.06250000000000006  1.0000
  O   O2896     1.0  0.7812499999999999  0.0  0.06250000000000006  1.0000
  O   O2897     1.0  0.8124999999999999  0.09374999999999999  0.03125000000000017  1.0000
  O   O2898     1.0  0.8124999999999999  0.15625  0.03125000000000017  1.0000
  O   O2899     1.0  0.8124999999999999  0.21874999999999994  0.03125000000000017  1.0000
  O   O2900     1.0  0.8124999999999999  0.28125  0.03125000000000017  1.0000
  O   O2901     1.0  0.8124999999999999  0.34375  0.03125000000000017  1.0000
  O   O2902     1.0  0.8124999999999999  0.4062499999999999  0.03125000000000017  1.0000
  O   O2903     1.0  0.8124999999999999  0.4687499999999999  0.03125000000000017  1.0000
  O   O2904     1.0  0.8124999999999999  0.5312499999999999  0.03125000000000017  1.0000
  O   O2905     1.0  0.8124999999999999  0.5937499999999998  0.03125000000000017  1.0000
  O   O2906     1.0  0.8124999999999999  0.6562499999999998  0.03125000000000017  1.0000
  O   O2907     1.0  0.8124999999999999  0.7187499999999999  0.03125000000000017  1.0000
  O   O2908     1.0  0.8124999999999999  0.7812499999999999  0.03125000000000017  1.0000
  O   O2909     1.0  0.8124999999999999  0.8437499999999998  0.03125000000000017  1.0000
  O   O2910     1.0  0.8124999999999999  0.9062499999999998  0.03125000000000017  1.0000
  O   O2911     1.0  0.8124999999999999  0.9687499999999998  0.03125000000000017  1.0000
  O   O2912     1.0  0.8124999999999999  0.031249999999999993  0.03125000000000017  1.0000
  O   O2913     1.0  0.03125  0.062499999999999986  0.875  1.0000
  O   O2914     1.0  0.03125  0.12499999999999997  0.875  1.0000
  O   O2915     1.0  0.03125  0.18749999999999997  0.875  1.0000
  O   O2916     1.0  0.03125  0.24999999999999994  0.875  1.0000
  O   O2917     1.0  0.03125  0.3125  0.875  1.0000
  O   O2918     1.0  0.03125  0.37499999999999994  0.875  1.0000
  O   O2919     1.0  0.03125  0.4374999999999999  0.875  1.0000
  O   O2920     1.0  0.03125  0.49999999999999983  0.875  1.0000
  O   O2921     1.0  0.03125  0.5624999999999998  0.875  1.0000
  O   O2922     1.0  0.03125  0.6249999999999998  0.875  1.0000
  O   O2923     1.0  0.03125  0.6874999999999998  0.875  1.0000
  O   O2924     1.0  0.03125  0.7499999999999999  0.875  1.0000
  O   O2925     1.0  0.03125  0.8124999999999998  0.875  1.0000
  O   O2926     1.0  0.03125  0.8749999999999998  0.875  1.0000
  O   O2927     1.0  0.03125  0.9374999999999998  0.875  1.0000
  O   O2928     1.0  0.03125  0.9999999999999999  0.875  1.0000
  O   O2929     1.0  0.0625  0.09374999999999999  0.84375  1.0000
  O   O2930     1.0  0.0625  0.15625  0.84375  1.0000
  O   O2931     1.0  0.0625  0.21874999999999994  0.84375  1.0000
  O   O2932     1.0  0.0625  0.2812499999999999  0.84375  1.0000
  O   O2933     1.0  0.0625  0.3437499999999999  0.84375  1.0000
  O   O2934     1.0  0.0625  0.4062499999999999  0.84375  1.0000
  O   O2935     1.0  0.0625  0.4687499999999999  0.84375  1.0000
  O   O2936     1.0  0.0625  0.5312499999999999  0.84375  1.0000
  O   O2937     1.0  0.0625  0.59375  0.84375  1.0000
  O   O2938     1.0  0.0625  0.65625  0.84375  1.0000
  O   O2939     1.0  0.0625  0.7187499999999999  0.84375  1.0000
  O   O2940     1.0  0.0625  0.7812499999999999  0.84375  1.0000
  O   O2941     1.0  0.0625  0.8437499999999998  0.84375  1.0000
  O   O2942     1.0  0.0625  0.9062499999999998  0.84375  1.0000
  O   O2943     1.0  0.0625  0.9687499999999998  0.84375  1.0000
  O   O2944     1.0  0.0625  0.031249999999999993  0.84375  1.0000
  O   O2945     1.0  0.09375  0.062499999999999986  0.8125  1.0000
  O   O2946     1.0  0.09375  0.12499999999999997  0.8125  1.0000
  O   O2947     1.0  0.09375  0.18749999999999997  0.8125  1.0000
  O   O2948     1.0  0.09375  0.24999999999999994  0.8125  1.0000
  O   O2949     1.0  0.09375  0.3125  0.8125  1.0000
  O   O2950     1.0  0.09375  0.37499999999999994  0.8125  1.0000
  O   O2951     1.0  0.09375  0.4374999999999999  0.8125  1.0000
  O   O2952     1.0  0.09375  0.49999999999999983  0.8125  1.0000
  O   O2953     1.0  0.09375  0.5624999999999998  0.8125  1.0000
  O   O2954     1.0  0.09375  0.6249999999999998  0.8125  1.0000
  O   O2955     1.0  0.09375  0.6874999999999998  0.8125  1.0000
  O   O2956     1.0  0.09375  0.7499999999999999  0.8125  1.0000
  O   O2957     1.0  0.09375  0.8124999999999998  0.8125  1.0000
  O   O2958     1.0  0.09375  0.8749999999999998  0.8125  1.0000
  O   O2959     1.0  0.09375  0.9374999999999998  0.8125  1.0000
  O   O2960     1.0  0.09375  0.9999999999999999  0.8125  1.0000
  O   O2961     1.0  0.125  0.09374999999999999  0.78125  1.0000
  O   O2962     1.0  0.125  0.15625  0.78125  1.0000
  O   O2963     1.0  0.125  0.21874999999999994  0.78125  1.0000
  O   O2964     1.0  0.125  0.2812499999999999  0.78125  1.0000
  O   O2965     1.0  0.125  0.3437499999999999  0.78125  1.0000
  O   O2966     1.0  0.125  0.4062499999999999  0.78125  1.0000
  O   O2967     1.0  0.125  0.4687499999999999  0.78125  1.0000
  O   O2968     1.0  0.125  0.53125  0.78125  1.0000
  O   O2969     1.0  0.125  0.59375  0.78125  1.0000
  O   O2970     1.0  0.125  0.6562499999999998  0.78125  1.0000
  O   O2971     1.0  0.125  0.7187499999999999  0.78125  1.0000
  O   O2972     1.0  0.125  0.7812500000000001  0.78125  1.0000
  O   O2973     1.0  0.125  0.8437499999999998  0.78125  1.0000
  O   O2974     1.0  0.125  0.9062499999999998  0.78125  1.0000
  O   O2975     1.0  0.125  0.9687499999999998  0.78125  1.0000
  O   O2976     1.0  0.125  0.031249999999999993  0.78125  1.0000
  O   O2977     1.0  0.15625000000000006  0.062499999999999986  0.75  1.0000
  O   O2978     1.0  0.15625000000000006  0.12499999999999997  0.75  1.0000
  O   O2979     1.0  0.15625000000000006  0.18749999999999997  0.75  1.0000
  O   O2980     1.0  0.15625000000000006  0.24999999999999994  0.75  1.0000
  O   O2981     1.0  0.15625000000000006  0.3125  0.75  1.0000
  O   O2982     1.0  0.15625000000000006  0.3749999999999999  0.75  1.0000
  O   O2983     1.0  0.15625000000000006  0.4374999999999999  0.75  1.0000
  O   O2984     1.0  0.15625000000000006  0.49999999999999983  0.75  1.0000
  O   O2985     1.0  0.15625000000000006  0.5624999999999998  0.75  1.0000
  O   O2986     1.0  0.15625000000000006  0.6249999999999998  0.75  1.0000
  O   O2987     1.0  0.15625000000000006  0.6875  0.75  1.0000
  O   O2988     1.0  0.15625000000000006  0.7499999999999999  0.75  1.0000
  O   O2989     1.0  0.15625000000000006  0.8124999999999998  0.75  1.0000
  O   O2990     1.0  0.15625000000000006  0.8749999999999998  0.75  1.0000
  O   O2991     1.0  0.15625000000000006  0.9374999999999998  0.75  1.0000
  O   O2992     1.0  0.15625000000000006  0.0  0.75  1.0000
  O   O2993     1.0  0.1875  0.09374999999999999  0.71875  1.0000
  O   O2994     1.0  0.1875  0.15625  0.71875  1.0000
  O   O2995     1.0  0.1875  0.21874999999999994  0.71875  1.0000
  O   O2996     1.0  0.1875  0.2812499999999999  0.71875  1.0000
  O   O2997     1.0  0.1875  0.34375  0.71875  1.0000
  O   O2998     1.0  0.1875  0.4062499999999999  0.71875  1.0000
  O   O2999     1.0  0.1875  0.4687499999999999  0.71875  1.0000
  O   O3000     1.0  0.1875  0.53125  0.71875  1.0000
  O   O3001     1.0  0.1875  0.59375  0.71875  1.0000
  O   O3002     1.0  0.1875  0.6562499999999998  0.71875  1.0000
  O   O3003     1.0  0.1875  0.7187499999999999  0.71875  1.0000
  O   O3004     1.0  0.1875  0.7812499999999999  0.71875  1.0000
  O   O3005     1.0  0.1875  0.8437499999999998  0.71875  1.0000
  O   O3006     1.0  0.1875  0.9062499999999998  0.71875  1.0000
  O   O3007     1.0  0.1875  0.9687499999999998  0.71875  1.0000
  O   O3008     1.0  0.1875  0.031249999999999993  0.71875  1.0000
  O   O3009     1.0  0.2187499999999999  0.062499999999999986  0.6875000000000001  1.0000
  O   O3010     1.0  0.2187499999999999  0.12499999999999997  0.6875000000000001  1.0000
  O   O3011     1.0  0.2187499999999999  0.18749999999999997  0.6875000000000001  1.0000
  O   O3012     1.0  0.2187499999999999  0.24999999999999994  0.6875000000000001  1.0000
  O   O3013     1.0  0.2187499999999999  0.3124999999999999  0.6875000000000001  1.0000
  O   O3014     1.0  0.2187499999999999  0.3749999999999999  0.6875000000000001  1.0000
  O   O3015     1.0  0.2187499999999999  0.4374999999999999  0.6875000000000001  1.0000
  O   O3016     1.0  0.2187499999999999  0.49999999999999983  0.6875000000000001  1.0000
  O   O3017     1.0  0.2187499999999999  0.5624999999999998  0.6875000000000001  1.0000
  O   O3018     1.0  0.2187499999999999  0.6249999999999998  0.6875000000000001  1.0000
  O   O3019     1.0  0.2187499999999999  0.6875  0.6875000000000001  1.0000
  O   O3020     1.0  0.2187499999999999  0.7499999999999999  0.6875000000000001  1.0000
  O   O3021     1.0  0.2187499999999999  0.8124999999999998  0.6875000000000001  1.0000
  O   O3022     1.0  0.2187499999999999  0.8750000000000001  0.6875000000000001  1.0000
  O   O3023     1.0  0.2187499999999999  0.9374999999999998  0.6875000000000001  1.0000
  O   O3024     1.0  0.2187499999999999  0.0  0.6875000000000001  1.0000
  O   O3025     1.0  0.25  0.09374999999999999  0.6562500000000001  1.0000
  O   O3026     1.0  0.25  0.15625  0.6562500000000001  1.0000
  O   O3027     1.0  0.25  0.21874999999999994  0.6562500000000001  1.0000
  O   O3028     1.0  0.25  0.28125  0.6562500000000001  1.0000
  O   O3029     1.0  0.25  0.34375  0.6562500000000001  1.0000
  O   O3030     1.0  0.25  0.4062499999999999  0.6562500000000001  1.0000
  O   O3031     1.0  0.25  0.4687499999999999  0.6562500000000001  1.0000
  O   O3032     1.0  0.25  0.53125  0.6562500000000001  1.0000
  O   O3033     1.0  0.25  0.5937499999999998  0.6562500000000001  1.0000
  O   O3034     1.0  0.25  0.6562499999999998  0.6562500000000001  1.0000
  O   O3035     1.0  0.25  0.7187499999999999  0.6562500000000001  1.0000
  O   O3036     1.0  0.25  0.7812499999999999  0.6562500000000001  1.0000
  O   O3037     1.0  0.25  0.8437499999999998  0.6562500000000001  1.0000
  O   O3038     1.0  0.25  0.9062499999999998  0.6562500000000001  1.0000
  O   O3039     1.0  0.25  0.9687499999999998  0.6562500000000001  1.0000
  O   O3040     1.0  0.25  0.031249999999999993  0.6562500000000001  1.0000
  O   O3041     1.0  0.2812499999999999  0.062499999999999986  0.6250000000000001  1.0000
  O   O3042     1.0  0.2812499999999999  0.12499999999999997  0.6250000000000001  1.0000
  O   O3043     1.0  0.2812499999999999  0.18749999999999997  0.6250000000000001  1.0000
  O   O3044     1.0  0.2812499999999999  0.24999999999999994  0.6250000000000001  1.0000
  O   O3045     1.0  0.2812499999999999  0.3124999999999999  0.6250000000000001  1.0000
  O   O3046     1.0  0.2812499999999999  0.3749999999999999  0.6250000000000001  1.0000
  O   O3047     1.0  0.2812499999999999  0.4374999999999999  0.6250000000000001  1.0000
  O   O3048     1.0  0.2812499999999999  0.49999999999999983  0.6250000000000001  1.0000
  O   O3049     1.0  0.2812499999999999  0.5625  0.6250000000000001  1.0000
  O   O3050     1.0  0.2812499999999999  0.625  0.6250000000000001  1.0000
  O   O3051     1.0  0.2812499999999999  0.6875  0.6250000000000001  1.0000
  O   O3052     1.0  0.2812499999999999  0.7499999999999999  0.6250000000000001  1.0000
  O   O3053     1.0  0.2812499999999999  0.8124999999999998  0.6250000000000001  1.0000
  O   O3054     1.0  0.2812499999999999  0.8750000000000001  0.6250000000000001  1.0000
  O   O3055     1.0  0.2812499999999999  0.9374999999999998  0.6250000000000001  1.0000
  O   O3056     1.0  0.2812499999999999  0.0  0.6250000000000001  1.0000
  O   O3057     1.0  0.3125  0.09374999999999999  0.5937500000000001  1.0000
  O   O3058     1.0  0.3125  0.15625  0.5937500000000001  1.0000
  O   O3059     1.0  0.3125  0.21874999999999994  0.5937500000000001  1.0000
  O   O3060     1.0  0.3125  0.28125  0.5937500000000001  1.0000
  O   O3061     1.0  0.3125  0.34375  0.5937500000000001  1.0000
  O   O3062     1.0  0.3125  0.4062499999999999  0.5937500000000001  1.0000
  O   O3063     1.0  0.3125  0.4687499999999999  0.5937500000000001  1.0000
  O   O3064     1.0  0.3125  0.5312499999999999  0.5937500000000001  1.0000
  O   O3065     1.0  0.3125  0.5937499999999998  0.5937500000000001  1.0000
  O   O3066     1.0  0.3125  0.6562499999999998  0.5937500000000001  1.0000
  O   O3067     1.0  0.3125  0.7187499999999999  0.5937500000000001  1.0000
  O   O3068     1.0  0.3125  0.7812499999999999  0.5937500000000001  1.0000
  O   O3069     1.0  0.3125  0.8437499999999998  0.5937500000000001  1.0000
  O   O3070     1.0  0.3125  0.9062499999999998  0.5937500000000001  1.0000
  O   O3071     1.0  0.3125  0.9687499999999998  0.5937500000000001  1.0000
  O   O3072     1.0  0.3125  0.031249999999999993  0.5937500000000001  1.0000
  O   O3073     1.0  0.34375  0.062499999999999986  0.5625000000000001  1.0000
  O   O3074     1.0  0.34375  0.12499999999999997  0.5625000000000001  1.0000
  O   O3075     1.0  0.34375  0.18749999999999997  0.5625000000000001  1.0000
  O   O3076     1.0  0.34375  0.24999999999999994  0.5625000000000001  1.0000
  O   O3077     1.0  0.34375  0.3124999999999999  0.5625000000000001  1.0000
  O   O3078     1.0  0.34375  0.3749999999999999  0.5625000000000001  1.0000
  O   O3079     1.0  0.34375  0.4374999999999999  0.5625000000000001  1.0000
  O   O3080     1.0  0.34375  0.49999999999999983  0.5625000000000001  1.0000
  O   O3081     1.0  0.34375  0.5625  0.5625000000000001  1.0000
  O   O3082     1.0  0.34375  0.625  0.5625000000000001  1.0000
  O   O3083     1.0  0.34375  0.6875  0.5625000000000001  1.0000
  O   O3084     1.0  0.34375  0.7499999999999999  0.5625000000000001  1.0000
  O   O3085     1.0  0.34375  0.8124999999999998  0.5625000000000001  1.0000
  O   O3086     1.0  0.34375  0.8749999999999998  0.5625000000000001  1.0000
  O   O3087     1.0  0.34375  0.9374999999999998  0.5625000000000001  1.0000
  O   O3088     1.0  0.34375  0.0  0.5625000000000001  1.0000
  O   O3089     1.0  0.375  0.09374999999999999  0.53125  1.0000
  O   O3090     1.0  0.375  0.15625  0.53125  1.0000
  O   O3091     1.0  0.375  0.21874999999999994  0.53125  1.0000
  O   O3092     1.0  0.375  0.28125  0.53125  1.0000
  O   O3093     1.0  0.375  0.34375  0.53125  1.0000
  O   O3094     1.0  0.375  0.4062499999999999  0.53125  1.0000
  O   O3095     1.0  0.375  0.4687499999999999  0.53125  1.0000
  O   O3096     1.0  0.375  0.5312499999999999  0.53125  1.0000
  O   O3097     1.0  0.375  0.5937499999999998  0.53125  1.0000
  O   O3098     1.0  0.375  0.6562499999999998  0.53125  1.0000
  O   O3099     1.0  0.375  0.7187499999999999  0.53125  1.0000
  O   O3100     1.0  0.375  0.7812499999999999  0.53125  1.0000
  O   O3101     1.0  0.375  0.8437499999999998  0.53125  1.0000
  O   O3102     1.0  0.375  0.9062499999999998  0.53125  1.0000
  O   O3103     1.0  0.375  0.9687499999999998  0.53125  1.0000
  O   O3104     1.0  0.375  0.031249999999999993  0.53125  1.0000
  O   O3105     1.0  0.4062499999999999  0.062499999999999986  0.5  1.0000
  O   O3106     1.0  0.4062499999999999  0.12499999999999997  0.5  1.0000
  O   O3107     1.0  0.4062499999999999  0.18749999999999997  0.5  1.0000
  O   O3108     1.0  0.4062499999999999  0.24999999999999983  0.5  1.0000
  O   O3109     1.0  0.4062499999999999  0.3124999999999999  0.5  1.0000
  O   O3110     1.0  0.4062499999999999  0.37499999999999994  0.5  1.0000
  O   O3111     1.0  0.4062499999999999  0.4374999999999999  0.5  1.0000
  O   O3112     1.0  0.4062499999999999  0.4999999999999999  0.5  1.0000
  O   O3113     1.0  0.4062499999999999  0.5625  0.5  1.0000
  O   O3114     1.0  0.4062499999999999  0.625  0.5  1.0000
  O   O3115     1.0  0.4062499999999999  0.6875  0.5  1.0000
  O   O3116     1.0  0.4062499999999999  0.7500000000000001  0.5  1.0000
  O   O3117     1.0  0.4062499999999999  0.8124999999999998  0.5  1.0000
  O   O3118     1.0  0.4062499999999999  0.8749999999999998  0.5  1.0000
  O   O3119     1.0  0.4062499999999999  0.9374999999999998  0.5  1.0000
  O   O3120     1.0  0.4062499999999999  0.0  0.5  1.0000
  O   O3121     1.0  0.4374999999999999  0.09374999999999999  0.4687499999999999  1.0000
  O   O3122     1.0  0.4374999999999999  0.15625  0.4687499999999999  1.0000
  O   O3123     1.0  0.4374999999999999  0.21874999999999994  0.4687499999999999  1.0000
  O   O3124     1.0  0.4374999999999999  0.28125  0.4687499999999999  1.0000
  O   O3125     1.0  0.4374999999999999  0.3437499999999999  0.4687499999999999  1.0000
  O   O3126     1.0  0.4374999999999999  0.4062499999999999  0.4687499999999999  1.0000
  O   O3127     1.0  0.4374999999999999  0.4687499999999999  0.4687499999999999  1.0000
  O   O3128     1.0  0.4374999999999999  0.5312499999999999  0.4687499999999999  1.0000
  O   O3129     1.0  0.4374999999999999  0.5937499999999998  0.4687499999999999  1.0000
  O   O3130     1.0  0.4374999999999999  0.65625  0.4687499999999999  1.0000
  O   O3131     1.0  0.4374999999999999  0.7187499999999999  0.4687499999999999  1.0000
  O   O3132     1.0  0.4374999999999999  0.7812499999999999  0.4687499999999999  1.0000
  O   O3133     1.0  0.4374999999999999  0.8437499999999998  0.4687499999999999  1.0000
  O   O3134     1.0  0.4374999999999999  0.9062499999999998  0.4687499999999999  1.0000
  O   O3135     1.0  0.4374999999999999  0.9687499999999998  0.4687499999999999  1.0000
  O   O3136     1.0  0.4374999999999999  0.031249999999999993  0.4687499999999999  1.0000
  O   O3137     1.0  0.4687499999999999  0.062499999999999986  0.43749999999999994  1.0000
  O   O3138     1.0  0.4687499999999999  0.12499999999999997  0.43749999999999994  1.0000
  O   O3139     1.0  0.4687499999999999  0.18749999999999997  0.43749999999999994  1.0000
  O   O3140     1.0  0.4687499999999999  0.24999999999999983  0.43749999999999994  1.0000
  O   O3141     1.0  0.4687499999999999  0.3125  0.43749999999999994  1.0000
  O   O3142     1.0  0.4687499999999999  0.37499999999999994  0.43749999999999994  1.0000
  O   O3143     1.0  0.4687499999999999  0.4374999999999999  0.43749999999999994  1.0000
  O   O3144     1.0  0.4687499999999999  0.49999999999999983  0.43749999999999994  1.0000
  O   O3145     1.0  0.4687499999999999  0.5625  0.43749999999999994  1.0000
  O   O3146     1.0  0.4687499999999999  0.6249999999999998  0.43749999999999994  1.0000
  O   O3147     1.0  0.4687499999999999  0.6875  0.43749999999999994  1.0000
  O   O3148     1.0  0.4687499999999999  0.7500000000000001  0.43749999999999994  1.0000
  O   O3149     1.0  0.4687499999999999  0.8124999999999998  0.43749999999999994  1.0000
  O   O3150     1.0  0.4687499999999999  0.8749999999999998  0.43749999999999994  1.0000
  O   O3151     1.0  0.4687499999999999  0.9374999999999998  0.43749999999999994  1.0000
  O   O3152     1.0  0.4687499999999999  0.0  0.43749999999999994  1.0000
  O   O3153     1.0  0.49999999999999994  0.09374999999999999  0.40625000000000017  1.0000
  O   O3154     1.0  0.49999999999999994  0.15625  0.40625000000000017  1.0000
  O   O3155     1.0  0.49999999999999994  0.21874999999999994  0.40625000000000017  1.0000
  O   O3156     1.0  0.49999999999999994  0.28125  0.40625000000000017  1.0000
  O   O3157     1.0  0.49999999999999994  0.3437499999999999  0.40625000000000017  1.0000
  O   O3158     1.0  0.49999999999999994  0.4062499999999999  0.40625000000000017  1.0000
  O   O3159     1.0  0.49999999999999994  0.4687499999999999  0.40625000000000017  1.0000
  O   O3160     1.0  0.49999999999999994  0.5312499999999999  0.40625000000000017  1.0000
  O   O3161     1.0  0.49999999999999994  0.5937499999999998  0.40625000000000017  1.0000
  O   O3162     1.0  0.49999999999999994  0.65625  0.40625000000000017  1.0000
  O   O3163     1.0  0.49999999999999994  0.7187499999999999  0.40625000000000017  1.0000
  O   O3164     1.0  0.49999999999999994  0.7812499999999999  0.40625000000000017  1.0000
  O   O3165     1.0  0.49999999999999994  0.8437500000000001  0.40625000000000017  1.0000
  O   O3166     1.0  0.49999999999999994  0.9062499999999998  0.40625000000000017  1.0000
  O   O3167     1.0  0.49999999999999994  0.9687499999999998  0.40625000000000017  1.0000
  O   O3168     1.0  0.49999999999999994  0.031249999999999993  0.40625000000000017  1.0000
  O   O3169     1.0  0.5312499999999999  0.062499999999999986  0.375  1.0000
  O   O3170     1.0  0.5312499999999999  0.12499999999999997  0.375  1.0000
  O   O3171     1.0  0.5312499999999999  0.18749999999999997  0.375  1.0000
  O   O3172     1.0  0.5312499999999999  0.24999999999999994  0.375  1.0000
  O   O3173     1.0  0.5312499999999999  0.3125  0.375  1.0000
  O   O3174     1.0  0.5312499999999999  0.37499999999999994  0.375  1.0000
  O   O3175     1.0  0.5312499999999999  0.4374999999999999  0.375  1.0000
  O   O3176     1.0  0.5312499999999999  0.49999999999999983  0.375  1.0000
  O   O3177     1.0  0.5312499999999999  0.5624999999999998  0.375  1.0000
  O   O3178     1.0  0.5312499999999999  0.6249999999999998  0.375  1.0000
  O   O3179     1.0  0.5312499999999999  0.6875  0.375  1.0000
  O   O3180     1.0  0.5312499999999999  0.7499999999999999  0.375  1.0000
  O   O3181     1.0  0.5312499999999999  0.8124999999999998  0.375  1.0000
  O   O3182     1.0  0.5312499999999999  0.8749999999999998  0.375  1.0000
  O   O3183     1.0  0.5312499999999999  0.9374999999999998  0.375  1.0000
  O   O3184     1.0  0.5312499999999999  0.0  0.375  1.0000
  O   O3185     1.0  0.5625  0.09374999999999999  0.34375000000000006  1.0000
  O   O3186     1.0  0.5625  0.15625  0.34375000000000006  1.0000
  O   O3187     1.0  0.5625  0.21874999999999994  0.34375000000000006  1.0000
  O   O3188     1.0  0.5625  0.2812499999999999  0.34375000000000006  1.0000
  O   O3189     1.0  0.5625  0.3437499999999999  0.34375000000000006  1.0000
  O   O3190     1.0  0.5625  0.4062499999999999  0.34375000000000006  1.0000
  O   O3191     1.0  0.5625  0.4687499999999999  0.34375000000000006  1.0000
  O   O3192     1.0  0.5625  0.53125  0.34375000000000006  1.0000
  O   O3193     1.0  0.5625  0.59375  0.34375000000000006  1.0000
  O   O3194     1.0  0.5625  0.65625  0.34375000000000006  1.0000
  O   O3195     1.0  0.5625  0.7187499999999999  0.34375000000000006  1.0000
  O   O3196     1.0  0.5625  0.7812499999999999  0.34375000000000006  1.0000
  O   O3197     1.0  0.5625  0.8437500000000001  0.34375000000000006  1.0000
  O   O3198     1.0  0.5625  0.9062499999999998  0.34375000000000006  1.0000
  O   O3199     1.0  0.5625  0.9687499999999998  0.34375000000000006  1.0000
  O   O3200     1.0  0.5625  0.031249999999999993  0.34375000000000006  1.0000
  O   O3201     1.0  0.5937499999999999  0.062499999999999986  0.31250000000000006  1.0000
  O   O3202     1.0  0.5937499999999999  0.12499999999999997  0.31250000000000006  1.0000
  O   O3203     1.0  0.5937499999999999  0.18749999999999997  0.31250000000000006  1.0000
  O   O3204     1.0  0.5937499999999999  0.24999999999999994  0.31250000000000006  1.0000
  O   O3205     1.0  0.5937499999999999  0.3125  0.31250000000000006  1.0000
  O   O3206     1.0  0.5937499999999999  0.37499999999999994  0.31250000000000006  1.0000
  O   O3207     1.0  0.5937499999999999  0.4374999999999999  0.31250000000000006  1.0000
  O   O3208     1.0  0.5937499999999999  0.49999999999999983  0.31250000000000006  1.0000
  O   O3209     1.0  0.5937499999999999  0.5624999999999998  0.31250000000000006  1.0000
  O   O3210     1.0  0.5937499999999999  0.6249999999999998  0.31250000000000006  1.0000
  O   O3211     1.0  0.5937499999999999  0.6875  0.31250000000000006  1.0000
  O   O3212     1.0  0.5937499999999999  0.7499999999999999  0.31250000000000006  1.0000
  O   O3213     1.0  0.5937499999999999  0.8124999999999998  0.31250000000000006  1.0000
  O   O3214     1.0  0.5937499999999999  0.8749999999999998  0.31250000000000006  1.0000
  O   O3215     1.0  0.5937499999999999  0.9374999999999998  0.31250000000000006  1.0000
  O   O3216     1.0  0.5937499999999999  0.0  0.31250000000000006  1.0000
  O   O3217     1.0  0.6250000000000001  0.09374999999999999  0.28125000000000006  1.0000
  O   O3218     1.0  0.6250000000000001  0.15625  0.28125000000000006  1.0000
  O   O3219     1.0  0.6250000000000001  0.21874999999999994  0.28125000000000006  1.0000
  O   O3220     1.0  0.6250000000000001  0.2812499999999999  0.28125000000000006  1.0000
  O   O3221     1.0  0.6250000000000001  0.3437499999999999  0.28125000000000006  1.0000
  O   O3222     1.0  0.6250000000000001  0.4062499999999999  0.28125000000000006  1.0000
  O   O3223     1.0  0.6250000000000001  0.4687499999999999  0.28125000000000006  1.0000
  O   O3224     1.0  0.6250000000000001  0.53125  0.28125000000000006  1.0000
  O   O3225     1.0  0.6250000000000001  0.59375  0.28125000000000006  1.0000
  O   O3226     1.0  0.6250000000000001  0.6562499999999998  0.28125000000000006  1.0000
  O   O3227     1.0  0.6250000000000001  0.7187499999999999  0.28125000000000006  1.0000
  O   O3228     1.0  0.6250000000000001  0.7812499999999999  0.28125000000000006  1.0000
  O   O3229     1.0  0.6250000000000001  0.8437499999999998  0.28125000000000006  1.0000
  O   O3230     1.0  0.6250000000000001  0.9062499999999998  0.28125000000000006  1.0000
  O   O3231     1.0  0.6250000000000001  0.9687499999999998  0.28125000000000006  1.0000
  O   O3232     1.0  0.6250000000000001  0.031249999999999993  0.28125000000000006  1.0000
  O   O3233     1.0  0.65625  0.062499999999999986  0.25  1.0000
  O   O3234     1.0  0.65625  0.12499999999999997  0.25  1.0000
  O   O3235     1.0  0.65625  0.18749999999999997  0.25  1.0000
  O   O3236     1.0  0.65625  0.24999999999999994  0.25  1.0000
  O   O3237     1.0  0.65625  0.3125  0.25  1.0000
  O   O3238     1.0  0.65625  0.3749999999999999  0.25  1.0000
  O   O3239     1.0  0.65625  0.4374999999999999  0.25  1.0000
  O   O3240     1.0  0.65625  0.49999999999999983  0.25  1.0000
  O   O3241     1.0  0.65625  0.5624999999999998  0.25  1.0000
  O   O3242     1.0  0.65625  0.6249999999999998  0.25  1.0000
  O   O3243     1.0  0.65625  0.6875  0.25  1.0000
  O   O3244     1.0  0.65625  0.7499999999999999  0.25  1.0000
  O   O3245     1.0  0.65625  0.8124999999999998  0.25  1.0000
  O   O3246     1.0  0.65625  0.8749999999999998  0.25  1.0000
  O   O3247     1.0  0.65625  0.9374999999999998  0.25  1.0000
  O   O3248     1.0  0.65625  0.0  0.25  1.0000
  O   O3249     1.0  0.6875000000000002  0.09374999999999999  0.21875000000000006  1.0000
  O   O3250     1.0  0.6875000000000002  0.15625  0.21875000000000006  1.0000
  O   O3251     1.0  0.6875000000000002  0.21874999999999994  0.21875000000000006  1.0000
  O   O3252     1.0  0.6875000000000002  0.2812499999999999  0.21875000000000006  1.0000
  O   O3253     1.0  0.6875000000000002  0.34375  0.21875000000000006  1.0000
  O   O3254     1.0  0.6875000000000002  0.4062499999999999  0.21875000000000006  1.0000
  O   O3255     1.0  0.6875000000000002  0.4687499999999999  0.21875000000000006  1.0000
  O   O3256     1.0  0.6875000000000002  0.53125  0.21875000000000006  1.0000
  O   O3257     1.0  0.6875000000000002  0.59375  0.21875000000000006  1.0000
  O   O3258     1.0  0.6875000000000002  0.6562499999999998  0.21875000000000006  1.0000
  O   O3259     1.0  0.6875000000000002  0.7187499999999999  0.21875000000000006  1.0000
  O   O3260     1.0  0.6875000000000002  0.7812499999999999  0.21875000000000006  1.0000
  O   O3261     1.0  0.6875000000000002  0.8437499999999998  0.21875000000000006  1.0000
  O   O3262     1.0  0.6875000000000002  0.9062499999999998  0.21875000000000006  1.0000
  O   O3263     1.0  0.6875000000000002  0.9687499999999998  0.21875000000000006  1.0000
  O   O3264     1.0  0.6875000000000002  0.031249999999999993  0.21875000000000006  1.0000
  O   O3265     1.0  0.7187499999999999  0.062499999999999986  0.18750000000000006  1.0000
  O   O3266     1.0  0.7187499999999999  0.12499999999999997  0.18750000000000006  1.0000
  O   O3267     1.0  0.7187499999999999  0.18749999999999997  0.18750000000000006  1.0000
  O   O3268     1.0  0.7187499999999999  0.24999999999999994  0.18750000000000006  1.0000
  O   O3269     1.0  0.7187499999999999  0.3124999999999999  0.18750000000000006  1.0000
  O   O3270     1.0  0.7187499999999999  0.3749999999999999  0.18750000000000006  1.0000
  O   O3271     1.0  0.7187499999999999  0.4374999999999999  0.18750000000000006  1.0000
  O   O3272     1.0  0.7187499999999999  0.49999999999999983  0.18750000000000006  1.0000
  O   O3273     1.0  0.7187499999999999  0.5624999999999998  0.18750000000000006  1.0000
  O   O3274     1.0  0.7187499999999999  0.625  0.18750000000000006  1.0000
  O   O3275     1.0  0.7187499999999999  0.6875  0.18750000000000006  1.0000
  O   O3276     1.0  0.7187499999999999  0.7499999999999999  0.18750000000000006  1.0000
  O   O3277     1.0  0.7187499999999999  0.8124999999999998  0.18750000000000006  1.0000
  O   O3278     1.0  0.7187499999999999  0.8749999999999998  0.18750000000000006  1.0000
  O   O3279     1.0  0.7187499999999999  0.9374999999999998  0.18750000000000006  1.0000
  O   O3280     1.0  0.7187499999999999  0.0  0.18750000000000006  1.0000
  O   O3281     1.0  0.75  0.09374999999999999  0.15625000000000017  1.0000
  O   O3282     1.0  0.75  0.15625  0.15625000000000017  1.0000
  O   O3283     1.0  0.75  0.21874999999999994  0.15625000000000017  1.0000
  O   O3284     1.0  0.75  0.28125  0.15625000000000017  1.0000
  O   O3285     1.0  0.75  0.34375  0.15625000000000017  1.0000
  O   O3286     1.0  0.75  0.4062499999999999  0.15625000000000017  1.0000
  O   O3287     1.0  0.75  0.4687499999999999  0.15625000000000017  1.0000
  O   O3288     1.0  0.75  0.53125  0.15625000000000017  1.0000
  O   O3289     1.0  0.75  0.5937499999999998  0.15625000000000017  1.0000
  O   O3290     1.0  0.75  0.6562499999999998  0.15625000000000017  1.0000
  O   O3291     1.0  0.75  0.7187499999999999  0.15625000000000017  1.0000
  O   O3292     1.0  0.75  0.7812499999999999  0.15625000000000017  1.0000
  O   O3293     1.0  0.75  0.8437499999999998  0.15625000000000017  1.0000
  O   O3294     1.0  0.75  0.9062499999999998  0.15625000000000017  1.0000
  O   O3295     1.0  0.75  0.9687499999999998  0.15625000000000017  1.0000
  O   O3296     1.0  0.75  0.031249999999999993  0.15625000000000017  1.0000
  O   O3297     1.0  0.7812499999999999  0.062499999999999986  0.12500000000000006  1.0000
  O   O3298     1.0  0.7812499999999999  0.12499999999999997  0.12500000000000006  1.0000
  O   O3299     1.0  0.7812499999999999  0.18749999999999997  0.12500000000000006  1.0000
  O   O3300     1.0  0.7812499999999999  0.24999999999999994  0.12500000000000006  1.0000
  O   O3301     1.0  0.7812499999999999  0.3124999999999999  0.12500000000000006  1.0000
  O   O3302     1.0  0.7812499999999999  0.3749999999999999  0.12500000000000006  1.0000
  O   O3303     1.0  0.7812499999999999  0.4374999999999999  0.12500000000000006  1.0000
  O   O3304     1.0  0.7812499999999999  0.49999999999999983  0.12500000000000006  1.0000
  O   O3305     1.0  0.7812499999999999  0.5624999999999998  0.12500000000000006  1.0000
  O   O3306     1.0  0.7812499999999999  0.625  0.12500000000000006  1.0000
  O   O3307     1.0  0.7812499999999999  0.6875  0.12500000000000006  1.0000
  O   O3308     1.0  0.7812499999999999  0.7499999999999999  0.12500000000000006  1.0000
  O   O3309     1.0  0.7812499999999999  0.8125000000000001  0.12500000000000006  1.0000
  O   O3310     1.0  0.7812499999999999  0.8749999999999998  0.12500000000000006  1.0000
  O   O3311     1.0  0.7812499999999999  0.9374999999999998  0.12500000000000006  1.0000
  O   O3312     1.0  0.7812499999999999  0.0  0.12500000000000006  1.0000
  O   O3313     1.0  0.8124999999999999  0.09374999999999999  0.09375000000000004  1.0000
  O   O3314     1.0  0.8124999999999999  0.15625  0.09375000000000004  1.0000
  O   O3315     1.0  0.8124999999999999  0.21874999999999994  0.09375000000000004  1.0000
  O   O3316     1.0  0.8124999999999999  0.28125  0.09375000000000004  1.0000
  O   O3317     1.0  0.8124999999999999  0.34375  0.09375000000000004  1.0000
  O   O3318     1.0  0.8124999999999999  0.4062499999999999  0.09375000000000004  1.0000
  O   O3319     1.0  0.8124999999999999  0.4687499999999999  0.09375000000000004  1.0000
  O   O3320     1.0  0.8124999999999999  0.5312499999999999  0.09375000000000004  1.0000
  O   O3321     1.0  0.8124999999999999  0.5937499999999998  0.09375000000000004  1.0000
  O   O3322     1.0  0.8124999999999999  0.6562499999999998  0.09375000000000004  1.0000
  O   O3323     1.0  0.8124999999999999  0.7187499999999999  0.09375000000000004  1.0000
  O   O3324     1.0  0.8124999999999999  0.7812499999999999  0.09375000000000004  1.0000
  O   O3325     1.0  0.8124999999999999  0.8437499999999998  0.09375000000000004  1.0000
  O   O3326     1.0  0.8124999999999999  0.9062499999999998  0.09375000000000004  1.0000
  O   O3327     1.0  0.8124999999999999  0.9687499999999998  0.09375000000000004  1.0000
  O   O3328     1.0  0.8124999999999999  0.031249999999999993  0.09375000000000004  1.0000
  O   O3329     1.0  0.8437500000000001  0.062499999999999986  0.06250000000000017  1.0000
  O   O3330     1.0  0.8437500000000001  0.12499999999999997  0.06250000000000017  1.0000
  O   O3331     1.0  0.8437500000000001  0.18749999999999997  0.06250000000000017  1.0000
  O   O3332     1.0  0.8437500000000001  0.24999999999999994  0.06250000000000017  1.0000
  O   O3333     1.0  0.8437500000000001  0.3124999999999999  0.06250000000000017  1.0000
  O   O3334     1.0  0.8437500000000001  0.3749999999999999  0.06250000000000017  1.0000
  O   O3335     1.0  0.8437500000000001  0.4374999999999999  0.06250000000000017  1.0000
  O   O3336     1.0  0.8437500000000001  0.4999999999999999  0.06250000000000017  1.0000
  O   O3337     1.0  0.8437500000000001  0.5625  0.06250000000000017  1.0000
  O   O3338     1.0  0.8437500000000001  0.625  0.06250000000000017  1.0000
  O   O3339     1.0  0.8437500000000001  0.6874999999999998  0.06250000000000017  1.0000
  O   O3340     1.0  0.8437500000000001  0.7499999999999999  0.06250000000000017  1.0000
  O   O3341     1.0  0.8437500000000001  0.8125000000000001  0.06250000000000017  1.0000
  O   O3342     1.0  0.8437500000000001  0.8749999999999998  0.06250000000000017  1.0000
  O   O3343     1.0  0.8437500000000001  0.9374999999999998  0.06250000000000017  1.0000
  O   O3344     1.0  0.8437500000000001  0.9999999999999999  0.06250000000000017  1.0000
  O   O3345     1.0  0.8749999999999999  0.09374999999999999  0.03125000000000017  1.0000
  O   O3346     1.0  0.8749999999999999  0.15625  0.03125000000000017  1.0000
  O   O3347     1.0  0.8749999999999999  0.21874999999999994  0.03125000000000017  1.0000
  O   O3348     1.0  0.8749999999999999  0.28125  0.03125000000000017  1.0000
  O   O3349     1.0  0.8749999999999999  0.34375  0.03125000000000017  1.0000
  O   O3350     1.0  0.8749999999999999  0.4062499999999999  0.03125000000000017  1.0000
  O   O3351     1.0  0.8749999999999999  0.4687499999999999  0.03125000000000017  1.0000
  O   O3352     1.0  0.8749999999999999  0.5312499999999999  0.03125000000000017  1.0000
  O   O3353     1.0  0.8749999999999999  0.5937499999999998  0.03125000000000017  1.0000
  O   O3354     1.0  0.8749999999999999  0.6562499999999998  0.03125000000000017  1.0000
  O   O3355     1.0  0.8749999999999999  0.7187499999999999  0.03125000000000017  1.0000
  O   O3356     1.0  0.8749999999999999  0.7812499999999999  0.03125000000000017  1.0000
  O   O3357     1.0  0.8749999999999999  0.8437499999999998  0.03125000000000017  1.0000
  O   O3358     1.0  0.8749999999999999  0.9062499999999998  0.03125000000000017  1.0000
  O   O3359     1.0  0.8749999999999999  0.9687499999999998  0.03125000000000017  1.0000
  O   O3360     1.0  0.8749999999999999  0.031249999999999993  0.03125000000000017  1.0000
  O   O3361     1.0  0.03125  0.062499999999999986  0.9375000000000001  1.0000
  O   O3362     1.0  0.03125  0.12499999999999997  0.9375000000000001  1.0000
  O   O3363     1.0  0.03125  0.18749999999999997  0.9375000000000001  1.0000
  O   O3364     1.0  0.03125  0.24999999999999994  0.9375000000000001  1.0000
  O   O3365     1.0  0.03125  0.3125  0.9375000000000001  1.0000
  O   O3366     1.0  0.03125  0.37499999999999994  0.9375000000000001  1.0000
  O   O3367     1.0  0.03125  0.4374999999999999  0.9375000000000001  1.0000
  O   O3368     1.0  0.03125  0.49999999999999983  0.9375000000000001  1.0000
  O   O3369     1.0  0.03125  0.5624999999999998  0.9375000000000001  1.0000
  O   O3370     1.0  0.03125  0.6249999999999998  0.9375000000000001  1.0000
  O   O3371     1.0  0.03125  0.6874999999999998  0.9375000000000001  1.0000
  O   O3372     1.0  0.03125  0.7499999999999999  0.9375000000000001  1.0000
  O   O3373     1.0  0.03125  0.8124999999999998  0.9375000000000001  1.0000
  O   O3374     1.0  0.03125  0.8749999999999998  0.9375000000000001  1.0000
  O   O3375     1.0  0.03125  0.9374999999999998  0.9375000000000001  1.0000
  O   O3376     1.0  0.03125  0.9999999999999999  0.9375000000000001  1.0000
  O   O3377     1.0  0.0625  0.09374999999999999  0.9062500000000001  1.0000
  O   O3378     1.0  0.0625  0.15625  0.9062500000000001  1.0000
  O   O3379     1.0  0.0625  0.21874999999999994  0.9062500000000001  1.0000
  O   O3380     1.0  0.0625  0.2812499999999999  0.9062500000000001  1.0000
  O   O3381     1.0  0.0625  0.3437499999999999  0.9062500000000001  1.0000
  O   O3382     1.0  0.0625  0.4062499999999999  0.9062500000000001  1.0000
  O   O3383     1.0  0.0625  0.4687499999999999  0.9062500000000001  1.0000
  O   O3384     1.0  0.0625  0.5312499999999999  0.9062500000000001  1.0000
  O   O3385     1.0  0.0625  0.59375  0.9062500000000001  1.0000
  O   O3386     1.0  0.0625  0.65625  0.9062500000000001  1.0000
  O   O3387     1.0  0.0625  0.7187499999999999  0.9062500000000001  1.0000
  O   O3388     1.0  0.0625  0.7812499999999999  0.9062500000000001  1.0000
  O   O3389     1.0  0.0625  0.8437499999999998  0.9062500000000001  1.0000
  O   O3390     1.0  0.0625  0.9062499999999998  0.9062500000000001  1.0000
  O   O3391     1.0  0.0625  0.9687499999999998  0.9062500000000001  1.0000
  O   O3392     1.0  0.0625  0.031249999999999993  0.9062500000000001  1.0000
  O   O3393     1.0  0.09375  0.062499999999999986  0.875  1.0000
  O   O3394     1.0  0.09375  0.12499999999999997  0.875  1.0000
  O   O3395     1.0  0.09375  0.18749999999999997  0.875  1.0000
  O   O3396     1.0  0.09375  0.24999999999999994  0.875  1.0000
  O   O3397     1.0  0.09375  0.3125  0.875  1.0000
  O   O3398     1.0  0.09375  0.37499999999999994  0.875  1.0000
  O   O3399     1.0  0.09375  0.4374999999999999  0.875  1.0000
  O   O3400     1.0  0.09375  0.49999999999999983  0.875  1.0000
  O   O3401     1.0  0.09375  0.5624999999999998  0.875  1.0000
  O   O3402     1.0  0.09375  0.6249999999999998  0.875  1.0000
  O   O3403     1.0  0.09375  0.6874999999999998  0.875  1.0000
  O   O3404     1.0  0.09375  0.7499999999999999  0.875  1.0000
  O   O3405     1.0  0.09375  0.8124999999999998  0.875  1.0000
  O   O3406     1.0  0.09375  0.8749999999999998  0.875  1.0000
  O   O3407     1.0  0.09375  0.9374999999999998  0.875  1.0000
  O   O3408     1.0  0.09375  0.9999999999999999  0.875  1.0000
  O   O3409     1.0  0.125  0.09374999999999999  0.84375  1.0000
  O   O3410     1.0  0.125  0.15625  0.84375  1.0000
  O   O3411     1.0  0.125  0.21874999999999994  0.84375  1.0000
  O   O3412     1.0  0.125  0.2812499999999999  0.84375  1.0000
  O   O3413     1.0  0.125  0.3437499999999999  0.84375  1.0000
  O   O3414     1.0  0.125  0.4062499999999999  0.84375  1.0000
  O   O3415     1.0  0.125  0.4687499999999999  0.84375  1.0000
  O   O3416     1.0  0.125  0.53125  0.84375  1.0000
  O   O3417     1.0  0.125  0.59375  0.84375  1.0000
  O   O3418     1.0  0.125  0.6562499999999998  0.84375  1.0000
  O   O3419     1.0  0.125  0.7187499999999999  0.84375  1.0000
  O   O3420     1.0  0.125  0.7812500000000001  0.84375  1.0000
  O   O3421     1.0  0.125  0.8437499999999998  0.84375  1.0000
  O   O3422     1.0  0.125  0.9062499999999998  0.84375  1.0000
  O   O3423     1.0  0.125  0.9687499999999998  0.84375  1.0000
  O   O3424     1.0  0.125  0.031249999999999993  0.84375  1.0000
  O   O3425     1.0  0.15625000000000006  0.062499999999999986  0.8125  1.0000
  O   O3426     1.0  0.15625000000000006  0.12499999999999997  0.8125  1.0000
  O   O3427     1.0  0.15625000000000006  0.18749999999999997  0.8125  1.0000
  O   O3428     1.0  0.15625000000000006  0.24999999999999994  0.8125  1.0000
  O   O3429     1.0  0.15625000000000006  0.3125  0.8125  1.0000
  O   O3430     1.0  0.15625000000000006  0.3749999999999999  0.8125  1.0000
  O   O3431     1.0  0.15625000000000006  0.4374999999999999  0.8125  1.0000
  O   O3432     1.0  0.15625000000000006  0.49999999999999983  0.8125  1.0000
  O   O3433     1.0  0.15625000000000006  0.5624999999999998  0.8125  1.0000
  O   O3434     1.0  0.15625000000000006  0.6249999999999998  0.8125  1.0000
  O   O3435     1.0  0.15625000000000006  0.6875  0.8125  1.0000
  O   O3436     1.0  0.15625000000000006  0.7499999999999999  0.8125  1.0000
  O   O3437     1.0  0.15625000000000006  0.8124999999999998  0.8125  1.0000
  O   O3438     1.0  0.15625000000000006  0.8749999999999998  0.8125  1.0000
  O   O3439     1.0  0.15625000000000006  0.9374999999999998  0.8125  1.0000
  O   O3440     1.0  0.15625000000000006  0.0  0.8125  1.0000
  O   O3441     1.0  0.1875  0.09374999999999999  0.78125  1.0000
  O   O3442     1.0  0.1875  0.15625  0.78125  1.0000
  O   O3443     1.0  0.1875  0.21874999999999994  0.78125  1.0000
  O   O3444     1.0  0.1875  0.2812499999999999  0.78125  1.0000
  O   O3445     1.0  0.1875  0.34375  0.78125  1.0000
  O   O3446     1.0  0.1875  0.4062499999999999  0.78125  1.0000
  O   O3447     1.0  0.1875  0.4687499999999999  0.78125  1.0000
  O   O3448     1.0  0.1875  0.53125  0.78125  1.0000
  O   O3449     1.0  0.1875  0.59375  0.78125  1.0000
  O   O3450     1.0  0.1875  0.6562499999999998  0.78125  1.0000
  O   O3451     1.0  0.1875  0.7187499999999999  0.78125  1.0000
  O   O3452     1.0  0.1875  0.7812499999999999  0.78125  1.0000
  O   O3453     1.0  0.1875  0.8437499999999998  0.78125  1.0000
  O   O3454     1.0  0.1875  0.9062499999999998  0.78125  1.0000
  O   O3455     1.0  0.1875  0.9687499999999998  0.78125  1.0000
  O   O3456     1.0  0.1875  0.031249999999999993  0.78125  1.0000
  O   O3457     1.0  0.21875  0.062499999999999986  0.75  1.0000
  O   O3458     1.0  0.21875  0.12499999999999997  0.75  1.0000
  O   O3459     1.0  0.21875  0.18749999999999997  0.75  1.0000
  O   O3460     1.0  0.21875  0.24999999999999994  0.75  1.0000
  O   O3461     1.0  0.21875  0.3124999999999999  0.75  1.0000
  O   O3462     1.0  0.21875  0.3749999999999999  0.75  1.0000
  O   O3463     1.0  0.21875  0.4374999999999999  0.75  1.0000
  O   O3464     1.0  0.21875  0.49999999999999983  0.75  1.0000
  O   O3465     1.0  0.21875  0.5624999999999998  0.75  1.0000
  O   O3466     1.0  0.21875  0.6249999999999998  0.75  1.0000
  O   O3467     1.0  0.21875  0.6875  0.75  1.0000
  O   O3468     1.0  0.21875  0.7499999999999999  0.75  1.0000
  O   O3469     1.0  0.21875  0.8124999999999998  0.75  1.0000
  O   O3470     1.0  0.21875  0.8750000000000001  0.75  1.0000
  O   O3471     1.0  0.21875  0.9374999999999998  0.75  1.0000
  O   O3472     1.0  0.21875  0.0  0.75  1.0000
  O   O3473     1.0  0.24999999999999992  0.09374999999999999  0.71875  1.0000
  O   O3474     1.0  0.24999999999999992  0.15625  0.71875  1.0000
  O   O3475     1.0  0.24999999999999992  0.21874999999999994  0.71875  1.0000
  O   O3476     1.0  0.24999999999999992  0.28125  0.71875  1.0000
  O   O3477     1.0  0.24999999999999992  0.34375  0.71875  1.0000
  O   O3478     1.0  0.24999999999999992  0.4062499999999999  0.71875  1.0000
  O   O3479     1.0  0.24999999999999992  0.4687499999999999  0.71875  1.0000
  O   O3480     1.0  0.24999999999999992  0.53125  0.71875  1.0000
  O   O3481     1.0  0.24999999999999992  0.5937499999999998  0.71875  1.0000
  O   O3482     1.0  0.24999999999999992  0.6562499999999998  0.71875  1.0000
  O   O3483     1.0  0.24999999999999992  0.7187499999999999  0.71875  1.0000
  O   O3484     1.0  0.24999999999999992  0.7812499999999999  0.71875  1.0000
  O   O3485     1.0  0.24999999999999992  0.8437499999999998  0.71875  1.0000
  O   O3486     1.0  0.24999999999999992  0.9062499999999998  0.71875  1.0000
  O   O3487     1.0  0.24999999999999992  0.9687499999999998  0.71875  1.0000
  O   O3488     1.0  0.24999999999999992  0.031249999999999993  0.71875  1.0000
  O   O3489     1.0  0.2812499999999999  0.062499999999999986  0.6875000000000001  1.0000
  O   O3490     1.0  0.2812499999999999  0.12499999999999997  0.6875000000000001  1.0000
  O   O3491     1.0  0.2812499999999999  0.18749999999999997  0.6875000000000001  1.0000
  O   O3492     1.0  0.2812499999999999  0.24999999999999994  0.6875000000000001  1.0000
  O   O3493     1.0  0.2812499999999999  0.3124999999999999  0.6875000000000001  1.0000
  O   O3494     1.0  0.2812499999999999  0.3749999999999999  0.6875000000000001  1.0000
  O   O3495     1.0  0.2812499999999999  0.4374999999999999  0.6875000000000001  1.0000
  O   O3496     1.0  0.2812499999999999  0.49999999999999983  0.6875000000000001  1.0000
  O   O3497     1.0  0.2812499999999999  0.5625  0.6875000000000001  1.0000
  O   O3498     1.0  0.2812499999999999  0.625  0.6875000000000001  1.0000
  O   O3499     1.0  0.2812499999999999  0.6875  0.6875000000000001  1.0000
  O   O3500     1.0  0.2812499999999999  0.7499999999999999  0.6875000000000001  1.0000
  O   O3501     1.0  0.2812499999999999  0.8124999999999998  0.6875000000000001  1.0000
  O   O3502     1.0  0.2812499999999999  0.8750000000000001  0.6875000000000001  1.0000
  O   O3503     1.0  0.2812499999999999  0.9374999999999998  0.6875000000000001  1.0000
  O   O3504     1.0  0.2812499999999999  0.0  0.6875000000000001  1.0000
  O   O3505     1.0  0.3125  0.09374999999999999  0.6562500000000001  1.0000
  O   O3506     1.0  0.3125  0.15625  0.6562500000000001  1.0000
  O   O3507     1.0  0.3125  0.21874999999999994  0.6562500000000001  1.0000
  O   O3508     1.0  0.3125  0.28125  0.6562500000000001  1.0000
  O   O3509     1.0  0.3125  0.34375  0.6562500000000001  1.0000
  O   O3510     1.0  0.3125  0.4062499999999999  0.6562500000000001  1.0000
  O   O3511     1.0  0.3125  0.4687499999999999  0.6562500000000001  1.0000
  O   O3512     1.0  0.3125  0.5312499999999999  0.6562500000000001  1.0000
  O   O3513     1.0  0.3125  0.5937499999999998  0.6562500000000001  1.0000
  O   O3514     1.0  0.3125  0.6562499999999998  0.6562500000000001  1.0000
  O   O3515     1.0  0.3125  0.7187499999999999  0.6562500000000001  1.0000
  O   O3516     1.0  0.3125  0.7812499999999999  0.6562500000000001  1.0000
  O   O3517     1.0  0.3125  0.8437499999999998  0.6562500000000001  1.0000
  O   O3518     1.0  0.3125  0.9062499999999998  0.6562500000000001  1.0000
  O   O3519     1.0  0.3125  0.9687499999999998  0.6562500000000001  1.0000
  O   O3520     1.0  0.3125  0.031249999999999993  0.6562500000000001  1.0000
  O   O3521     1.0  0.3437500000000001  0.062499999999999986  0.6250000000000001  1.0000
  O   O3522     1.0  0.3437500000000001  0.12499999999999997  0.6250000000000001  1.0000
  O   O3523     1.0  0.3437500000000001  0.18749999999999997  0.6250000000000001  1.0000
  O   O3524     1.0  0.3437500000000001  0.24999999999999994  0.6250000000000001  1.0000
  O   O3525     1.0  0.3437500000000001  0.3124999999999999  0.6250000000000001  1.0000
  O   O3526     1.0  0.3437500000000001  0.3749999999999999  0.6250000000000001  1.0000
  O   O3527     1.0  0.3437500000000001  0.4374999999999999  0.6250000000000001  1.0000
  O   O3528     1.0  0.3437500000000001  0.49999999999999983  0.6250000000000001  1.0000
  O   O3529     1.0  0.3437500000000001  0.5625  0.6250000000000001  1.0000
  O   O3530     1.0  0.3437500000000001  0.625  0.6250000000000001  1.0000
  O   O3531     1.0  0.3437500000000001  0.6875  0.6250000000000001  1.0000
  O   O3532     1.0  0.3437500000000001  0.7499999999999999  0.6250000000000001  1.0000
  O   O3533     1.0  0.3437500000000001  0.8124999999999998  0.6250000000000001  1.0000
  O   O3534     1.0  0.3437500000000001  0.8749999999999998  0.6250000000000001  1.0000
  O   O3535     1.0  0.3437500000000001  0.9374999999999998  0.6250000000000001  1.0000
  O   O3536     1.0  0.3437500000000001  0.0  0.6250000000000001  1.0000
  O   O3537     1.0  0.3749999999999999  0.09374999999999999  0.5937500000000001  1.0000
  O   O3538     1.0  0.3749999999999999  0.15625  0.5937500000000001  1.0000
  O   O3539     1.0  0.3749999999999999  0.21874999999999994  0.5937500000000001  1.0000
  O   O3540     1.0  0.3749999999999999  0.28125  0.5937500000000001  1.0000
  O   O3541     1.0  0.3749999999999999  0.34375  0.5937500000000001  1.0000
  O   O3542     1.0  0.3749999999999999  0.4062499999999999  0.5937500000000001  1.0000
  O   O3543     1.0  0.3749999999999999  0.4687499999999999  0.5937500000000001  1.0000
  O   O3544     1.0  0.3749999999999999  0.5312499999999999  0.5937500000000001  1.0000
  O   O3545     1.0  0.3749999999999999  0.5937499999999998  0.5937500000000001  1.0000
  O   O3546     1.0  0.3749999999999999  0.6562499999999998  0.5937500000000001  1.0000
  O   O3547     1.0  0.3749999999999999  0.7187499999999999  0.5937500000000001  1.0000
  O   O3548     1.0  0.3749999999999999  0.7812499999999999  0.5937500000000001  1.0000
  O   O3549     1.0  0.3749999999999999  0.8437499999999998  0.5937500000000001  1.0000
  O   O3550     1.0  0.3749999999999999  0.9062499999999998  0.5937500000000001  1.0000
  O   O3551     1.0  0.3749999999999999  0.9687499999999998  0.5937500000000001  1.0000
  O   O3552     1.0  0.3749999999999999  0.031249999999999993  0.5937500000000001  1.0000
  O   O3553     1.0  0.4062499999999999  0.062499999999999986  0.5625000000000001  1.0000
  O   O3554     1.0  0.4062499999999999  0.12499999999999997  0.5625000000000001  1.0000
  O   O3555     1.0  0.4062499999999999  0.18749999999999997  0.5625000000000001  1.0000
  O   O3556     1.0  0.4062499999999999  0.24999999999999983  0.5625000000000001  1.0000
  O   O3557     1.0  0.4062499999999999  0.3124999999999999  0.5625000000000001  1.0000
  O   O3558     1.0  0.4062499999999999  0.37499999999999994  0.5625000000000001  1.0000
  O   O3559     1.0  0.4062499999999999  0.4374999999999999  0.5625000000000001  1.0000
  O   O3560     1.0  0.4062499999999999  0.4999999999999999  0.5625000000000001  1.0000
  O   O3561     1.0  0.4062499999999999  0.5625  0.5625000000000001  1.0000
  O   O3562     1.0  0.4062499999999999  0.625  0.5625000000000001  1.0000
  O   O3563     1.0  0.4062499999999999  0.6875  0.5625000000000001  1.0000
  O   O3564     1.0  0.4062499999999999  0.7500000000000001  0.5625000000000001  1.0000
  O   O3565     1.0  0.4062499999999999  0.8124999999999998  0.5625000000000001  1.0000
  O   O3566     1.0  0.4062499999999999  0.8749999999999998  0.5625000000000001  1.0000
  O   O3567     1.0  0.4062499999999999  0.9374999999999998  0.5625000000000001  1.0000
  O   O3568     1.0  0.4062499999999999  0.0  0.5625000000000001  1.0000
  O   O3569     1.0  0.4374999999999999  0.09374999999999999  0.53125  1.0000
  O   O3570     1.0  0.4374999999999999  0.15625  0.53125  1.0000
  O   O3571     1.0  0.4374999999999999  0.21874999999999994  0.53125  1.0000
  O   O3572     1.0  0.4374999999999999  0.28125  0.53125  1.0000
  O   O3573     1.0  0.4374999999999999  0.3437499999999999  0.53125  1.0000
  O   O3574     1.0  0.4374999999999999  0.4062499999999999  0.53125  1.0000
  O   O3575     1.0  0.4374999999999999  0.4687499999999999  0.53125  1.0000
  O   O3576     1.0  0.4374999999999999  0.5312499999999999  0.53125  1.0000
  O   O3577     1.0  0.4374999999999999  0.5937499999999998  0.53125  1.0000
  O   O3578     1.0  0.4374999999999999  0.65625  0.53125  1.0000
  O   O3579     1.0  0.4374999999999999  0.7187499999999999  0.53125  1.0000
  O   O3580     1.0  0.4374999999999999  0.7812499999999999  0.53125  1.0000
  O   O3581     1.0  0.4374999999999999  0.8437499999999998  0.53125  1.0000
  O   O3582     1.0  0.4374999999999999  0.9062499999999998  0.53125  1.0000
  O   O3583     1.0  0.4374999999999999  0.9687499999999998  0.53125  1.0000
  O   O3584     1.0  0.4374999999999999  0.031249999999999993  0.53125  1.0000
  O   O3585     1.0  0.4687499999999999  0.062499999999999986  0.5  1.0000
  O   O3586     1.0  0.4687499999999999  0.12499999999999997  0.5  1.0000
  O   O3587     1.0  0.4687499999999999  0.18749999999999997  0.5  1.0000
  O   O3588     1.0  0.4687499999999999  0.24999999999999983  0.5  1.0000
  O   O3589     1.0  0.4687499999999999  0.3125  0.5  1.0000
  O   O3590     1.0  0.4687499999999999  0.37499999999999994  0.5  1.0000
  O   O3591     1.0  0.4687499999999999  0.4374999999999999  0.5  1.0000
  O   O3592     1.0  0.4687499999999999  0.49999999999999983  0.5  1.0000
  O   O3593     1.0  0.4687499999999999  0.5625  0.5  1.0000
  O   O3594     1.0  0.4687499999999999  0.6249999999999998  0.5  1.0000
  O   O3595     1.0  0.4687499999999999  0.6875  0.5  1.0000
  O   O3596     1.0  0.4687499999999999  0.7500000000000001  0.5  1.0000
  O   O3597     1.0  0.4687499999999999  0.8124999999999998  0.5  1.0000
  O   O3598     1.0  0.4687499999999999  0.8749999999999998  0.5  1.0000
  O   O3599     1.0  0.4687499999999999  0.9374999999999998  0.5  1.0000
  O   O3600     1.0  0.4687499999999999  0.0  0.5  1.0000
  O   O3601     1.0  0.49999999999999994  0.09374999999999999  0.4687499999999999  1.0000
  O   O3602     1.0  0.49999999999999994  0.15625  0.4687499999999999  1.0000
  O   O3603     1.0  0.49999999999999994  0.21874999999999994  0.4687499999999999  1.0000
  O   O3604     1.0  0.49999999999999994  0.28125  0.4687499999999999  1.0000
  O   O3605     1.0  0.49999999999999994  0.3437499999999999  0.4687499999999999  1.0000
  O   O3606     1.0  0.49999999999999994  0.4062499999999999  0.4687499999999999  1.0000
  O   O3607     1.0  0.49999999999999994  0.4687499999999999  0.4687499999999999  1.0000
  O   O3608     1.0  0.49999999999999994  0.5312499999999999  0.4687499999999999  1.0000
  O   O3609     1.0  0.49999999999999994  0.5937499999999998  0.4687499999999999  1.0000
  O   O3610     1.0  0.49999999999999994  0.65625  0.4687499999999999  1.0000
  O   O3611     1.0  0.49999999999999994  0.7187499999999999  0.4687499999999999  1.0000
  O   O3612     1.0  0.49999999999999994  0.7812499999999999  0.4687499999999999  1.0000
  O   O3613     1.0  0.49999999999999994  0.8437500000000001  0.4687499999999999  1.0000
  O   O3614     1.0  0.49999999999999994  0.9062499999999998  0.4687499999999999  1.0000
  O   O3615     1.0  0.49999999999999994  0.9687499999999998  0.4687499999999999  1.0000
  O   O3616     1.0  0.49999999999999994  0.031249999999999993  0.4687499999999999  1.0000
  O   O3617     1.0  0.5312499999999999  0.062499999999999986  0.4375000000000001  1.0000
  O   O3618     1.0  0.5312499999999999  0.12499999999999997  0.4375000000000001  1.0000
  O   O3619     1.0  0.5312499999999999  0.18749999999999997  0.4375000000000001  1.0000
  O   O3620     1.0  0.5312499999999999  0.24999999999999994  0.4375000000000001  1.0000
  O   O3621     1.0  0.5312499999999999  0.3125  0.4375000000000001  1.0000
  O   O3622     1.0  0.5312499999999999  0.37499999999999994  0.4375000000000001  1.0000
  O   O3623     1.0  0.5312499999999999  0.4374999999999999  0.4375000000000001  1.0000
  O   O3624     1.0  0.5312499999999999  0.49999999999999983  0.4375000000000001  1.0000
  O   O3625     1.0  0.5312499999999999  0.5624999999999998  0.4375000000000001  1.0000
  O   O3626     1.0  0.5312499999999999  0.6249999999999998  0.4375000000000001  1.0000
  O   O3627     1.0  0.5312499999999999  0.6875  0.4375000000000001  1.0000
  O   O3628     1.0  0.5312499999999999  0.7499999999999999  0.4375000000000001  1.0000
  O   O3629     1.0  0.5312499999999999  0.8124999999999998  0.4375000000000001  1.0000
  O   O3630     1.0  0.5312499999999999  0.8749999999999998  0.4375000000000001  1.0000
  O   O3631     1.0  0.5312499999999999  0.9374999999999998  0.4375000000000001  1.0000
  O   O3632     1.0  0.5312499999999999  0.0  0.4375000000000001  1.0000
  O   O3633     1.0  0.5624999999999999  0.09374999999999999  0.40625000000000017  1.0000
  O   O3634     1.0  0.5624999999999999  0.15625  0.40625000000000017  1.0000
  O   O3635     1.0  0.5624999999999999  0.21874999999999994  0.40625000000000017  1.0000
  O   O3636     1.0  0.5624999999999999  0.2812499999999999  0.40625000000000017  1.0000
  O   O3637     1.0  0.5624999999999999  0.3437499999999999  0.40625000000000017  1.0000
  O   O3638     1.0  0.5624999999999999  0.4062499999999999  0.40625000000000017  1.0000
  O   O3639     1.0  0.5624999999999999  0.4687499999999999  0.40625000000000017  1.0000
  O   O3640     1.0  0.5624999999999999  0.53125  0.40625000000000017  1.0000
  O   O3641     1.0  0.5624999999999999  0.59375  0.40625000000000017  1.0000
  O   O3642     1.0  0.5624999999999999  0.65625  0.40625000000000017  1.0000
  O   O3643     1.0  0.5624999999999999  0.7187499999999999  0.40625000000000017  1.0000
  O   O3644     1.0  0.5624999999999999  0.7812499999999999  0.40625000000000017  1.0000
  O   O3645     1.0  0.5624999999999999  0.8437500000000001  0.40625000000000017  1.0000
  O   O3646     1.0  0.5624999999999999  0.9062499999999998  0.40625000000000017  1.0000
  O   O3647     1.0  0.5624999999999999  0.9687499999999998  0.40625000000000017  1.0000
  O   O3648     1.0  0.5624999999999999  0.031249999999999993  0.40625000000000017  1.0000
  O   O3649     1.0  0.5937499999999999  0.062499999999999986  0.375  1.0000
  O   O3650     1.0  0.5937499999999999  0.12499999999999997  0.375  1.0000
  O   O3651     1.0  0.5937499999999999  0.18749999999999997  0.375  1.0000
  O   O3652     1.0  0.5937499999999999  0.24999999999999994  0.375  1.0000
  O   O3653     1.0  0.5937499999999999  0.3125  0.375  1.0000
  O   O3654     1.0  0.5937499999999999  0.37499999999999994  0.375  1.0000
  O   O3655     1.0  0.5937499999999999  0.4374999999999999  0.375  1.0000
  O   O3656     1.0  0.5937499999999999  0.49999999999999983  0.375  1.0000
  O   O3657     1.0  0.5937499999999999  0.5624999999999998  0.375  1.0000
  O   O3658     1.0  0.5937499999999999  0.6249999999999998  0.375  1.0000
  O   O3659     1.0  0.5937499999999999  0.6875  0.375  1.0000
  O   O3660     1.0  0.5937499999999999  0.7499999999999999  0.375  1.0000
  O   O3661     1.0  0.5937499999999999  0.8124999999999998  0.375  1.0000
  O   O3662     1.0  0.5937499999999999  0.8749999999999998  0.375  1.0000
  O   O3663     1.0  0.5937499999999999  0.9374999999999998  0.375  1.0000
  O   O3664     1.0  0.5937499999999999  0.0  0.375  1.0000
  O   O3665     1.0  0.6250000000000002  0.09374999999999999  0.34375000000000006  1.0000
  O   O3666     1.0  0.6250000000000002  0.15625  0.34375000000000006  1.0000
  O   O3667     1.0  0.6250000000000002  0.21874999999999994  0.34375000000000006  1.0000
  O   O3668     1.0  0.6250000000000002  0.2812499999999999  0.34375000000000006  1.0000
  O   O3669     1.0  0.6250000000000002  0.3437499999999999  0.34375000000000006  1.0000
  O   O3670     1.0  0.6250000000000002  0.4062499999999999  0.34375000000000006  1.0000
  O   O3671     1.0  0.6250000000000002  0.4687499999999999  0.34375000000000006  1.0000
  O   O3672     1.0  0.6250000000000002  0.53125  0.34375000000000006  1.0000
  O   O3673     1.0  0.6250000000000002  0.59375  0.34375000000000006  1.0000
  O   O3674     1.0  0.6250000000000002  0.6562499999999998  0.34375000000000006  1.0000
  O   O3675     1.0  0.6250000000000002  0.7187499999999999  0.34375000000000006  1.0000
  O   O3676     1.0  0.6250000000000002  0.7812499999999999  0.34375000000000006  1.0000
  O   O3677     1.0  0.6250000000000002  0.8437499999999998  0.34375000000000006  1.0000
  O   O3678     1.0  0.6250000000000002  0.9062499999999998  0.34375000000000006  1.0000
  O   O3679     1.0  0.6250000000000002  0.9687499999999998  0.34375000000000006  1.0000
  O   O3680     1.0  0.6250000000000002  0.031249999999999993  0.34375000000000006  1.0000
  O   O3681     1.0  0.6562499999999999  0.062499999999999986  0.31250000000000006  1.0000
  O   O3682     1.0  0.6562499999999999  0.12499999999999997  0.31250000000000006  1.0000
  O   O3683     1.0  0.6562499999999999  0.18749999999999997  0.31250000000000006  1.0000
  O   O3684     1.0  0.6562499999999999  0.24999999999999994  0.31250000000000006  1.0000
  O   O3685     1.0  0.6562499999999999  0.3125  0.31250000000000006  1.0000
  O   O3686     1.0  0.6562499999999999  0.3749999999999999  0.31250000000000006  1.0000
  O   O3687     1.0  0.6562499999999999  0.4374999999999999  0.31250000000000006  1.0000
  O   O3688     1.0  0.6562499999999999  0.49999999999999983  0.31250000000000006  1.0000
  O   O3689     1.0  0.6562499999999999  0.5624999999999998  0.31250000000000006  1.0000
  O   O3690     1.0  0.6562499999999999  0.6249999999999998  0.31250000000000006  1.0000
  O   O3691     1.0  0.6562499999999999  0.6875  0.31250000000000006  1.0000
  O   O3692     1.0  0.6562499999999999  0.7499999999999999  0.31250000000000006  1.0000
  O   O3693     1.0  0.6562499999999999  0.8124999999999998  0.31250000000000006  1.0000
  O   O3694     1.0  0.6562499999999999  0.8749999999999998  0.31250000000000006  1.0000
  O   O3695     1.0  0.6562499999999999  0.9374999999999998  0.31250000000000006  1.0000
  O   O3696     1.0  0.6562499999999999  0.0  0.31250000000000006  1.0000
  O   O3697     1.0  0.6875000000000001  0.09374999999999999  0.28125000000000006  1.0000
  O   O3698     1.0  0.6875000000000001  0.15625  0.28125000000000006  1.0000
  O   O3699     1.0  0.6875000000000001  0.21874999999999994  0.28125000000000006  1.0000
  O   O3700     1.0  0.6875000000000001  0.2812499999999999  0.28125000000000006  1.0000
  O   O3701     1.0  0.6875000000000001  0.34375  0.28125000000000006  1.0000
  O   O3702     1.0  0.6875000000000001  0.4062499999999999  0.28125000000000006  1.0000
  O   O3703     1.0  0.6875000000000001  0.4687499999999999  0.28125000000000006  1.0000
  O   O3704     1.0  0.6875000000000001  0.53125  0.28125000000000006  1.0000
  O   O3705     1.0  0.6875000000000001  0.59375  0.28125000000000006  1.0000
  O   O3706     1.0  0.6875000000000001  0.6562499999999998  0.28125000000000006  1.0000
  O   O3707     1.0  0.6875000000000001  0.7187499999999999  0.28125000000000006  1.0000
  O   O3708     1.0  0.6875000000000001  0.7812499999999999  0.28125000000000006  1.0000
  O   O3709     1.0  0.6875000000000001  0.8437499999999998  0.28125000000000006  1.0000
  O   O3710     1.0  0.6875000000000001  0.9062499999999998  0.28125000000000006  1.0000
  O   O3711     1.0  0.6875000000000001  0.9687499999999998  0.28125000000000006  1.0000
  O   O3712     1.0  0.6875000000000001  0.031249999999999993  0.28125000000000006  1.0000
  O   O3713     1.0  0.71875  0.062499999999999986  0.25  1.0000
  O   O3714     1.0  0.71875  0.12499999999999997  0.25  1.0000
  O   O3715     1.0  0.71875  0.18749999999999997  0.25  1.0000
  O   O3716     1.0  0.71875  0.24999999999999994  0.25  1.0000
  O   O3717     1.0  0.71875  0.3124999999999999  0.25  1.0000
  O   O3718     1.0  0.71875  0.3749999999999999  0.25  1.0000
  O   O3719     1.0  0.71875  0.4374999999999999  0.25  1.0000
  O   O3720     1.0  0.71875  0.49999999999999983  0.25  1.0000
  O   O3721     1.0  0.71875  0.5624999999999998  0.25  1.0000
  O   O3722     1.0  0.71875  0.625  0.25  1.0000
  O   O3723     1.0  0.71875  0.6875  0.25  1.0000
  O   O3724     1.0  0.71875  0.7499999999999999  0.25  1.0000
  O   O3725     1.0  0.71875  0.8124999999999998  0.25  1.0000
  O   O3726     1.0  0.71875  0.8749999999999998  0.25  1.0000
  O   O3727     1.0  0.71875  0.9374999999999998  0.25  1.0000
  O   O3728     1.0  0.71875  0.0  0.25  1.0000
  O   O3729     1.0  0.7499999999999999  0.09374999999999999  0.21875000000000006  1.0000
  O   O3730     1.0  0.7499999999999999  0.15625  0.21875000000000006  1.0000
  O   O3731     1.0  0.7499999999999999  0.21874999999999994  0.21875000000000006  1.0000
  O   O3732     1.0  0.7499999999999999  0.28125  0.21875000000000006  1.0000
  O   O3733     1.0  0.7499999999999999  0.34375  0.21875000000000006  1.0000
  O   O3734     1.0  0.7499999999999999  0.4062499999999999  0.21875000000000006  1.0000
  O   O3735     1.0  0.7499999999999999  0.4687499999999999  0.21875000000000006  1.0000
  O   O3736     1.0  0.7499999999999999  0.53125  0.21875000000000006  1.0000
  O   O3737     1.0  0.7499999999999999  0.5937499999999998  0.21875000000000006  1.0000
  O   O3738     1.0  0.7499999999999999  0.6562499999999998  0.21875000000000006  1.0000
  O   O3739     1.0  0.7499999999999999  0.7187499999999999  0.21875000000000006  1.0000
  O   O3740     1.0  0.7499999999999999  0.7812499999999999  0.21875000000000006  1.0000
  O   O3741     1.0  0.7499999999999999  0.8437499999999998  0.21875000000000006  1.0000
  O   O3742     1.0  0.7499999999999999  0.9062499999999998  0.21875000000000006  1.0000
  O   O3743     1.0  0.7499999999999999  0.9687499999999998  0.21875000000000006  1.0000
  O   O3744     1.0  0.7499999999999999  0.031249999999999993  0.21875000000000006  1.0000
  O   O3745     1.0  0.7812499999999999  0.062499999999999986  0.18750000000000006  1.0000
  O   O3746     1.0  0.7812499999999999  0.12499999999999997  0.18750000000000006  1.0000
  O   O3747     1.0  0.7812499999999999  0.18749999999999997  0.18750000000000006  1.0000
  O   O3748     1.0  0.7812499999999999  0.24999999999999994  0.18750000000000006  1.0000
  O   O3749     1.0  0.7812499999999999  0.3124999999999999  0.18750000000000006  1.0000
  O   O3750     1.0  0.7812499999999999  0.3749999999999999  0.18750000000000006  1.0000
  O   O3751     1.0  0.7812499999999999  0.4374999999999999  0.18750000000000006  1.0000
  O   O3752     1.0  0.7812499999999999  0.49999999999999983  0.18750000000000006  1.0000
  O   O3753     1.0  0.7812499999999999  0.5624999999999998  0.18750000000000006  1.0000
  O   O3754     1.0  0.7812499999999999  0.625  0.18750000000000006  1.0000
  O   O3755     1.0  0.7812499999999999  0.6875  0.18750000000000006  1.0000
  O   O3756     1.0  0.7812499999999999  0.7499999999999999  0.18750000000000006  1.0000
  O   O3757     1.0  0.7812499999999999  0.8125000000000001  0.18750000000000006  1.0000
  O   O3758     1.0  0.7812499999999999  0.8749999999999998  0.18750000000000006  1.0000
  O   O3759     1.0  0.7812499999999999  0.9374999999999998  0.18750000000000006  1.0000
  O   O3760     1.0  0.7812499999999999  0.0  0.18750000000000006  1.0000
  O   O3761     1.0  0.8124999999999999  0.09374999999999999  0.15625000000000003  1.0000
  O   O3762     1.0  0.8124999999999999  0.15625  0.15625000000000003  1.0000
  O   O3763     1.0  0.8124999999999999  0.21874999999999994  0.15625000000000003  1.0000
  O   O3764     1.0  0.8124999999999999  0.28125  0.15625000000000003  1.0000
  O   O3765     1.0  0.8124999999999999  0.34375  0.15625000000000003  1.0000
  O   O3766     1.0  0.8124999999999999  0.4062499999999999  0.15625000000000003  1.0000
  O   O3767     1.0  0.8124999999999999  0.4687499999999999  0.15625000000000003  1.0000
  O   O3768     1.0  0.8124999999999999  0.5312499999999999  0.15625000000000003  1.0000
  O   O3769     1.0  0.8124999999999999  0.5937499999999998  0.15625000000000003  1.0000
  O   O3770     1.0  0.8124999999999999  0.6562499999999998  0.15625000000000003  1.0000
  O   O3771     1.0  0.8124999999999999  0.7187499999999999  0.15625000000000003  1.0000
  O   O3772     1.0  0.8124999999999999  0.7812499999999999  0.15625000000000003  1.0000
  O   O3773     1.0  0.8124999999999999  0.8437499999999998  0.15625000000000003  1.0000
  O   O3774     1.0  0.8124999999999999  0.9062499999999998  0.15625000000000003  1.0000
  O   O3775     1.0  0.8124999999999999  0.9687499999999998  0.15625000000000003  1.0000
  O   O3776     1.0  0.8124999999999999  0.031249999999999993  0.15625000000000003  1.0000
  O   O3777     1.0  0.8437500000000001  0.062499999999999986  0.12500000000000006  1.0000
  O   O3778     1.0  0.8437500000000001  0.12499999999999997  0.12500000000000006  1.0000
  O   O3779     1.0  0.8437500000000001  0.18749999999999997  0.12500000000000006  1.0000
  O   O3780     1.0  0.8437500000000001  0.24999999999999994  0.12500000000000006  1.0000
  O   O3781     1.0  0.8437500000000001  0.3124999999999999  0.12500000000000006  1.0000
  O   O3782     1.0  0.8437500000000001  0.3749999999999999  0.12500000000000006  1.0000
  O   O3783     1.0  0.8437500000000001  0.4374999999999999  0.12500000000000006  1.0000
  O   O3784     1.0  0.8437500000000001  0.4999999999999999  0.12500000000000006  1.0000
  O   O3785     1.0  0.8437500000000001  0.5625  0.12500000000000006  1.0000
  O   O3786     1.0  0.8437500000000001  0.625  0.12500000000000006  1.0000
  O   O3787     1.0  0.8437500000000001  0.6874999999999998  0.12500000000000006  1.0000
  O   O3788     1.0  0.8437500000000001  0.7499999999999999  0.12500000000000006  1.0000
  O   O3789     1.0  0.8437500000000001  0.8125000000000001  0.12500000000000006  1.0000
  O   O3790     1.0  0.8437500000000001  0.8749999999999998  0.12500000000000006  1.0000
  O   O3791     1.0  0.8437500000000001  0.9374999999999998  0.12500000000000006  1.0000
  O   O3792     1.0  0.8437500000000001  0.9999999999999999  0.12500000000000006  1.0000
  O   O3793     1.0  0.8749999999999999  0.09374999999999999  0.09375000000000015  1.0000
  O   O3794     1.0  0.8749999999999999  0.15625  0.09375000000000015  1.0000
  O   O3795     1.0  0.8749999999999999  0.21874999999999994  0.09375000000000015  1.0000
  O   O3796     1.0  0.8749999999999999  0.28125  0.09375000000000015  1.0000
  O   O3797     1.0  0.8749999999999999  0.34375  0.09375000000000015  1.0000
  O   O3798     1.0  0.8749999999999999  0.4062499999999999  0.09375000000000015  1.0000
  O   O3799     1.0  0.8749999999999999  0.4687499999999999  0.09375000000000015  1.0000
  O   O3800     1.0  0.8749999999999999  0.5312499999999999  0.09375000000000015  1.0000
  O   O3801     1.0  0.8749999999999999  0.5937499999999998  0.09375000000000015  1.0000
  O   O3802     1.0  0.8749999999999999  0.6562499999999998  0.09375000000000015  1.0000
  O   O3803     1.0  0.8749999999999999  0.7187499999999999  0.09375000000000015  1.0000
  O   O3804     1.0  0.8749999999999999  0.7812499999999999  0.09375000000000015  1.0000
  O   O3805     1.0  0.8749999999999999  0.8437499999999998  0.09375000000000015  1.0000
  O   O3806     1.0  0.8749999999999999  0.9062499999999998  0.09375000000000015  1.0000
  O   O3807     1.0  0.8749999999999999  0.9687499999999998  0.09375000000000015  1.0000
  O   O3808     1.0  0.8749999999999999  0.031249999999999993  0.09375000000000015  1.0000
  O   O3809     1.0  0.9062500000000002  0.062499999999999986  0.06249999999999983  1.0000
  O   O3810     1.0  0.9062500000000002  0.12499999999999997  0.06249999999999983  1.0000
  O   O3811     1.0  0.9062500000000002  0.18749999999999997  0.06249999999999983  1.0000
  O   O3812     1.0  0.9062500000000002  0.24999999999999983  0.06249999999999983  1.0000
  O   O3813     1.0  0.9062500000000002  0.3124999999999999  0.06249999999999983  1.0000
  O   O3814     1.0  0.9062500000000002  0.37499999999999994  0.06249999999999983  1.0000
  O   O3815     1.0  0.9062500000000002  0.4374999999999999  0.06249999999999983  1.0000
  O   O3816     1.0  0.9062500000000002  0.4999999999999999  0.06249999999999983  1.0000
  O   O3817     1.0  0.9062500000000002  0.5625  0.06249999999999983  1.0000
  O   O3818     1.0  0.9062500000000002  0.625  0.06249999999999983  1.0000
  O   O3819     1.0  0.9062500000000002  0.6874999999999998  0.06249999999999983  1.0000
  O   O3820     1.0  0.9062500000000002  0.7499999999999999  0.06249999999999983  1.0000
  O   O3821     1.0  0.9062500000000002  0.8124999999999998  0.06249999999999983  1.0000
  O   O3822     1.0  0.9062500000000002  0.8749999999999998  0.06249999999999983  1.0000
  O   O3823     1.0  0.9062500000000002  0.9374999999999998  0.06249999999999983  1.0000
  O   O3824     1.0  0.9062500000000002  0.9999999999999999  0.06249999999999983  1.0000
  O   O3825     1.0  0.9375  0.09374999999999999  0.031249999999999833  1.0000
  O   O3826     1.0  0.9375  0.15625  0.031249999999999833  1.0000
  O   O3827     1.0  0.9375  0.21874999999999994  0.031249999999999833  1.0000
  O   O3828     1.0  0.9375  0.28125  0.031249999999999833  1.0000
  O   O3829     1.0  0.9375  0.3437499999999999  0.031249999999999833  1.0000
  O   O3830     1.0  0.9375  0.4062499999999999  0.031249999999999833  1.0000
  O   O3831     1.0  0.9375  0.4687499999999999  0.031249999999999833  1.0000
  O   O3832     1.0  0.9375  0.5312499999999999  0.031249999999999833  1.0000
  O   O3833     1.0  0.9375  0.5937499999999998  0.031249999999999833  1.0000
  O   O3834     1.0  0.9375  0.6562499999999998  0.031249999999999833  1.0000
  O   O3835     1.0  0.9375  0.7187499999999999  0.031249999999999833  1.0000
  O   O3836     1.0  0.9375  0.7812499999999999  0.031249999999999833  1.0000
  O   O3837     1.0  0.9375  0.8437499999999998  0.031249999999999833  1.0000
  O   O3838     1.0  0.9375  0.9062499999999998  0.031249999999999833  1.0000
  O   O3839     1.0  0.9375  0.9687499999999998  0.031249999999999833  1.0000
  O   O3840     1.0  0.9375  0.031249999999999993  0.031249999999999833  1.0000
  O   O3841     1.0  0.03125  0.062499999999999986  0.0  1.0000
  O   O3842     1.0  0.03125  0.12499999999999997  0.0  1.0000
  O   O3843     1.0  0.03125  0.18749999999999997  0.0  1.0000
  O   O3844     1.0  0.03125  0.24999999999999994  0.0  1.0000
  O   O3845     1.0  0.03125  0.3125  0.0  1.0000
  O   O3846     1.0  0.03125  0.37499999999999994  0.0  1.0000
  O   O3847     1.0  0.03125  0.4374999999999999  0.0  1.0000
  O   O3848     1.0  0.03125  0.49999999999999983  0.0  1.0000
  O   O3849     1.0  0.03125  0.5624999999999998  0.0  1.0000
  O   O3850     1.0  0.03125  0.6249999999999998  0.0  1.0000
  O   O3851     1.0  0.03125  0.6874999999999998  0.0  1.0000
  O   O3852     1.0  0.03125  0.7499999999999999  0.0  1.0000
  O   O3853     1.0  0.03125  0.8124999999999998  0.0  1.0000
  O   O3854     1.0  0.03125  0.8749999999999998  0.0  1.0000
  O   O3855     1.0  0.03125  0.9374999999999998  0.0  1.0000
  O   O3856     1.0  0.03125  0.9999999999999999  0.0  1.0000
  O   O3857     1.0  0.0625  0.09374999999999999  0.9687500000000001  1.0000
  O   O3858     1.0  0.0625  0.15625  0.9687500000000001  1.0000
  O   O3859     1.0  0.0625  0.21874999999999994  0.9687500000000001  1.0000
  O   O3860     1.0  0.0625  0.2812499999999999  0.9687500000000001  1.0000
  O   O3861     1.0  0.0625  0.3437499999999999  0.9687500000000001  1.0000
  O   O3862     1.0  0.0625  0.4062499999999999  0.9687500000000001  1.0000
  O   O3863     1.0  0.0625  0.4687499999999999  0.9687500000000001  1.0000
  O   O3864     1.0  0.0625  0.5312499999999999  0.9687500000000001  1.0000
  O   O3865     1.0  0.0625  0.59375  0.9687500000000001  1.0000
  O   O3866     1.0  0.0625  0.65625  0.9687500000000001  1.0000
  O   O3867     1.0  0.0625  0.7187499999999999  0.9687500000000001  1.0000
  O   O3868     1.0  0.0625  0.7812499999999999  0.9687500000000001  1.0000
  O   O3869     1.0  0.0625  0.8437499999999998  0.9687500000000001  1.0000
  O   O3870     1.0  0.0625  0.9062499999999998  0.9687500000000001  1.0000
  O   O3871     1.0  0.0625  0.9687499999999998  0.9687500000000001  1.0000
  O   O3872     1.0  0.0625  0.031249999999999993  0.9687500000000001  1.0000
  O   O3873     1.0  0.09375  0.062499999999999986  0.9375000000000001  1.0000
  O   O3874     1.0  0.09375  0.12499999999999997  0.9375000000000001  1.0000
  O   O3875     1.0  0.09375  0.18749999999999997  0.9375000000000001  1.0000
  O   O3876     1.0  0.09375  0.24999999999999994  0.9375000000000001  1.0000
  O   O3877     1.0  0.09375  0.3125  0.9375000000000001  1.0000
  O   O3878     1.0  0.09375  0.37499999999999994  0.9375000000000001  1.0000
  O   O3879     1.0  0.09375  0.4374999999999999  0.9375000000000001  1.0000
  O   O3880     1.0  0.09375  0.49999999999999983  0.9375000000000001  1.0000
  O   O3881     1.0  0.09375  0.5624999999999998  0.9375000000000001  1.0000
  O   O3882     1.0  0.09375  0.6249999999999998  0.9375000000000001  1.0000
  O   O3883     1.0  0.09375  0.6874999999999998  0.9375000000000001  1.0000
  O   O3884     1.0  0.09375  0.7499999999999999  0.9375000000000001  1.0000
  O   O3885     1.0  0.09375  0.8124999999999998  0.9375000000000001  1.0000
  O   O3886     1.0  0.09375  0.8749999999999998  0.9375000000000001  1.0000
  O   O3887     1.0  0.09375  0.9374999999999998  0.9375000000000001  1.0000
  O   O3888     1.0  0.09375  0.9999999999999999  0.9375000000000001  1.0000
  O   O3889     1.0  0.125  0.09374999999999999  0.9062500000000001  1.0000
  O   O3890     1.0  0.125  0.15625  0.9062500000000001  1.0000
  O   O3891     1.0  0.125  0.21874999999999994  0.9062500000000001  1.0000
  O   O3892     1.0  0.125  0.2812499999999999  0.9062500000000001  1.0000
  O   O3893     1.0  0.125  0.3437499999999999  0.9062500000000001  1.0000
  O   O3894     1.0  0.125  0.4062499999999999  0.9062500000000001  1.0000
  O   O3895     1.0  0.125  0.4687499999999999  0.9062500000000001  1.0000
  O   O3896     1.0  0.125  0.53125  0.9062500000000001  1.0000
  O   O3897     1.0  0.125  0.59375  0.9062500000000001  1.0000
  O   O3898     1.0  0.125  0.6562499999999998  0.9062500000000001  1.0000
  O   O3899     1.0  0.125  0.7187499999999999  0.9062500000000001  1.0000
  O   O3900     1.0  0.125  0.7812500000000001  0.9062500000000001  1.0000
  O   O3901     1.0  0.125  0.8437499999999998  0.9062500000000001  1.0000
  O   O3902     1.0  0.125  0.9062499999999998  0.9062500000000001  1.0000
  O   O3903     1.0  0.125  0.9687499999999998  0.9062500000000001  1.0000
  O   O3904     1.0  0.125  0.031249999999999993  0.9062500000000001  1.0000
  O   O3905     1.0  0.15625000000000006  0.062499999999999986  0.875  1.0000
  O   O3906     1.0  0.15625000000000006  0.12499999999999997  0.875  1.0000
  O   O3907     1.0  0.15625000000000006  0.18749999999999997  0.875  1.0000
  O   O3908     1.0  0.15625000000000006  0.24999999999999994  0.875  1.0000
  O   O3909     1.0  0.15625000000000006  0.3125  0.875  1.0000
  O   O3910     1.0  0.15625000000000006  0.3749999999999999  0.875  1.0000
  O   O3911     1.0  0.15625000000000006  0.4374999999999999  0.875  1.0000
  O   O3912     1.0  0.15625000000000006  0.49999999999999983  0.875  1.0000
  O   O3913     1.0  0.15625000000000006  0.5624999999999998  0.875  1.0000
  O   O3914     1.0  0.15625000000000006  0.6249999999999998  0.875  1.0000
  O   O3915     1.0  0.15625000000000006  0.6875  0.875  1.0000
  O   O3916     1.0  0.15625000000000006  0.7499999999999999  0.875  1.0000
  O   O3917     1.0  0.15625000000000006  0.8124999999999998  0.875  1.0000
  O   O3918     1.0  0.15625000000000006  0.8749999999999998  0.875  1.0000
  O   O3919     1.0  0.15625000000000006  0.9374999999999998  0.875  1.0000
  O   O3920     1.0  0.15625000000000006  0.0  0.875  1.0000
  O   O3921     1.0  0.1875  0.09374999999999999  0.84375  1.0000
  O   O3922     1.0  0.1875  0.15625  0.84375  1.0000
  O   O3923     1.0  0.1875  0.21874999999999994  0.84375  1.0000
  O   O3924     1.0  0.1875  0.2812499999999999  0.84375  1.0000
  O   O3925     1.0  0.1875  0.34375  0.84375  1.0000
  O   O3926     1.0  0.1875  0.4062499999999999  0.84375  1.0000
  O   O3927     1.0  0.1875  0.4687499999999999  0.84375  1.0000
  O   O3928     1.0  0.1875  0.53125  0.84375  1.0000
  O   O3929     1.0  0.1875  0.59375  0.84375  1.0000
  O   O3930     1.0  0.1875  0.6562499999999998  0.84375  1.0000
  O   O3931     1.0  0.1875  0.7187499999999999  0.84375  1.0000
  O   O3932     1.0  0.1875  0.7812499999999999  0.84375  1.0000
  O   O3933     1.0  0.1875  0.8437499999999998  0.84375  1.0000
  O   O3934     1.0  0.1875  0.9062499999999998  0.84375  1.0000
  O   O3935     1.0  0.1875  0.9687499999999998  0.84375  1.0000
  O   O3936     1.0  0.1875  0.031249999999999993  0.84375  1.0000
  O   O3937     1.0  0.21875  0.062499999999999986  0.8125  1.0000
  O   O3938     1.0  0.21875  0.12499999999999997  0.8125  1.0000
  O   O3939     1.0  0.21875  0.18749999999999997  0.8125  1.0000
  O   O3940     1.0  0.21875  0.24999999999999994  0.8125  1.0000
  O   O3941     1.0  0.21875  0.3124999999999999  0.8125  1.0000
  O   O3942     1.0  0.21875  0.3749999999999999  0.8125  1.0000
  O   O3943     1.0  0.21875  0.4374999999999999  0.8125  1.0000
  O   O3944     1.0  0.21875  0.49999999999999983  0.8125  1.0000
  O   O3945     1.0  0.21875  0.5624999999999998  0.8125  1.0000
  O   O3946     1.0  0.21875  0.6249999999999998  0.8125  1.0000
  O   O3947     1.0  0.21875  0.6875  0.8125  1.0000
  O   O3948     1.0  0.21875  0.7499999999999999  0.8125  1.0000
  O   O3949     1.0  0.21875  0.8124999999999998  0.8125  1.0000
  O   O3950     1.0  0.21875  0.8750000000000001  0.8125  1.0000
  O   O3951     1.0  0.21875  0.9374999999999998  0.8125  1.0000
  O   O3952     1.0  0.21875  0.0  0.8125  1.0000
  O   O3953     1.0  0.25  0.09374999999999999  0.78125  1.0000
  O   O3954     1.0  0.25  0.15625  0.78125  1.0000
  O   O3955     1.0  0.25  0.21874999999999994  0.78125  1.0000
  O   O3956     1.0  0.25  0.28125  0.78125  1.0000
  O   O3957     1.0  0.25  0.34375  0.78125  1.0000
  O   O3958     1.0  0.25  0.4062499999999999  0.78125  1.0000
  O   O3959     1.0  0.25  0.4687499999999999  0.78125  1.0000
  O   O3960     1.0  0.25  0.53125  0.78125  1.0000
  O   O3961     1.0  0.25  0.5937499999999998  0.78125  1.0000
  O   O3962     1.0  0.25  0.6562499999999998  0.78125  1.0000
  O   O3963     1.0  0.25  0.7187499999999999  0.78125  1.0000
  O   O3964     1.0  0.25  0.7812499999999999  0.78125  1.0000
  O   O3965     1.0  0.25  0.8437499999999998  0.78125  1.0000
  O   O3966     1.0  0.25  0.9062499999999998  0.78125  1.0000
  O   O3967     1.0  0.25  0.9687499999999998  0.78125  1.0000
  O   O3968     1.0  0.25  0.031249999999999993  0.78125  1.0000
  O   O3969     1.0  0.2812499999999999  0.062499999999999986  0.75  1.0000
  O   O3970     1.0  0.2812499999999999  0.12499999999999997  0.75  1.0000
  O   O3971     1.0  0.2812499999999999  0.18749999999999997  0.75  1.0000
  O   O3972     1.0  0.2812499999999999  0.24999999999999994  0.75  1.0000
  O   O3973     1.0  0.2812499999999999  0.3124999999999999  0.75  1.0000
  O   O3974     1.0  0.2812499999999999  0.3749999999999999  0.75  1.0000
  O   O3975     1.0  0.2812499999999999  0.4374999999999999  0.75  1.0000
  O   O3976     1.0  0.2812499999999999  0.49999999999999983  0.75  1.0000
  O   O3977     1.0  0.2812499999999999  0.5625  0.75  1.0000
  O   O3978     1.0  0.2812499999999999  0.625  0.75  1.0000
  O   O3979     1.0  0.2812499999999999  0.6875  0.75  1.0000
  O   O3980     1.0  0.2812499999999999  0.7499999999999999  0.75  1.0000
  O   O3981     1.0  0.2812499999999999  0.8124999999999998  0.75  1.0000
  O   O3982     1.0  0.2812499999999999  0.8750000000000001  0.75  1.0000
  O   O3983     1.0  0.2812499999999999  0.9374999999999998  0.75  1.0000
  O   O3984     1.0  0.2812499999999999  0.0  0.75  1.0000
  O   O3985     1.0  0.3125  0.09374999999999999  0.71875  1.0000
  O   O3986     1.0  0.3125  0.15625  0.71875  1.0000
  O   O3987     1.0  0.3125  0.21874999999999994  0.71875  1.0000
  O   O3988     1.0  0.3125  0.28125  0.71875  1.0000
  O   O3989     1.0  0.3125  0.34375  0.71875  1.0000
  O   O3990     1.0  0.3125  0.4062499999999999  0.71875  1.0000
  O   O3991     1.0  0.3125  0.4687499999999999  0.71875  1.0000
  O   O3992     1.0  0.3125  0.5312499999999999  0.71875  1.0000
  O   O3993     1.0  0.3125  0.5937499999999998  0.71875  1.0000
  O   O3994     1.0  0.3125  0.6562499999999998  0.71875  1.0000
  O   O3995     1.0  0.3125  0.7187499999999999  0.71875  1.0000
  O   O3996     1.0  0.3125  0.7812499999999999  0.71875  1.0000
  O   O3997     1.0  0.3125  0.8437499999999998  0.71875  1.0000
  O   O3998     1.0  0.3125  0.9062499999999998  0.71875  1.0000
  O   O3999     1.0  0.3125  0.9687499999999998  0.71875  1.0000
  O   O4000     1.0  0.3125  0.031249999999999993  0.71875  1.0000
  O   O4001     1.0  0.34375  0.062499999999999986  0.6875000000000001  1.0000
  O   O4002     1.0  0.34375  0.12499999999999997  0.6875000000000001  1.0000
  O   O4003     1.0  0.34375  0.18749999999999997  0.6875000000000001  1.0000
  O   O4004     1.0  0.34375  0.24999999999999994  0.6875000000000001  1.0000
  O   O4005     1.0  0.34375  0.3124999999999999  0.6875000000000001  1.0000
  O   O4006     1.0  0.34375  0.3749999999999999  0.6875000000000001  1.0000
  O   O4007     1.0  0.34375  0.4374999999999999  0.6875000000000001  1.0000
  O   O4008     1.0  0.34375  0.49999999999999983  0.6875000000000001  1.0000
  O   O4009     1.0  0.34375  0.5625  0.6875000000000001  1.0000
  O   O4010     1.0  0.34375  0.625  0.6875000000000001  1.0000
  O   O4011     1.0  0.34375  0.6875  0.6875000000000001  1.0000
  O   O4012     1.0  0.34375  0.7499999999999999  0.6875000000000001  1.0000
  O   O4013     1.0  0.34375  0.8124999999999998  0.6875000000000001  1.0000
  O   O4014     1.0  0.34375  0.8749999999999998  0.6875000000000001  1.0000
  O   O4015     1.0  0.34375  0.9374999999999998  0.6875000000000001  1.0000
  O   O4016     1.0  0.34375  0.0  0.6875000000000001  1.0000
  O   O4017     1.0  0.375  0.09374999999999999  0.6562500000000001  1.0000
  O   O4018     1.0  0.375  0.15625  0.6562500000000001  1.0000
  O   O4019     1.0  0.375  0.21874999999999994  0.6562500000000001  1.0000
  O   O4020     1.0  0.375  0.28125  0.6562500000000001  1.0000
  O   O4021     1.0  0.375  0.34375  0.6562500000000001  1.0000
  O   O4022     1.0  0.375  0.4062499999999999  0.6562500000000001  1.0000
  O   O4023     1.0  0.375  0.4687499999999999  0.6562500000000001  1.0000
  O   O4024     1.0  0.375  0.5312499999999999  0.6562500000000001  1.0000
  O   O4025     1.0  0.375  0.5937499999999998  0.6562500000000001  1.0000
  O   O4026     1.0  0.375  0.6562499999999998  0.6562500000000001  1.0000
  O   O4027     1.0  0.375  0.7187499999999999  0.6562500000000001  1.0000
  O   O4028     1.0  0.375  0.7812499999999999  0.6562500000000001  1.0000
  O   O4029     1.0  0.375  0.8437499999999998  0.6562500000000001  1.0000
  O   O4030     1.0  0.375  0.9062499999999998  0.6562500000000001  1.0000
  O   O4031     1.0  0.375  0.9687499999999998  0.6562500000000001  1.0000
  O   O4032     1.0  0.375  0.031249999999999993  0.6562500000000001  1.0000
  O   O4033     1.0  0.4062499999999999  0.062499999999999986  0.6250000000000001  1.0000
  O   O4034     1.0  0.4062499999999999  0.12499999999999997  0.6250000000000001  1.0000
  O   O4035     1.0  0.4062499999999999  0.18749999999999997  0.6250000000000001  1.0000
  O   O4036     1.0  0.4062499999999999  0.24999999999999983  0.6250000000000001  1.0000
  O   O4037     1.0  0.4062499999999999  0.3124999999999999  0.6250000000000001  1.0000
  O   O4038     1.0  0.4062499999999999  0.37499999999999994  0.6250000000000001  1.0000
  O   O4039     1.0  0.4062499999999999  0.4374999999999999  0.6250000000000001  1.0000
  O   O4040     1.0  0.4062499999999999  0.4999999999999999  0.6250000000000001  1.0000
  O   O4041     1.0  0.4062499999999999  0.5625  0.6250000000000001  1.0000
  O   O4042     1.0  0.4062499999999999  0.625  0.6250000000000001  1.0000
  O   O4043     1.0  0.4062499999999999  0.6875  0.6250000000000001  1.0000
  O   O4044     1.0  0.4062499999999999  0.7500000000000001  0.6250000000000001  1.0000
  O   O4045     1.0  0.4062499999999999  0.8124999999999998  0.6250000000000001  1.0000
  O   O4046     1.0  0.4062499999999999  0.8749999999999998  0.6250000000000001  1.0000
  O   O4047     1.0  0.4062499999999999  0.9374999999999998  0.6250000000000001  1.0000
  O   O4048     1.0  0.4062499999999999  0.0  0.6250000000000001  1.0000
  O   O4049     1.0  0.4374999999999999  0.09374999999999999  0.5937500000000001  1.0000
  O   O4050     1.0  0.4374999999999999  0.15625  0.5937500000000001  1.0000
  O   O4051     1.0  0.4374999999999999  0.21874999999999994  0.5937500000000001  1.0000
  O   O4052     1.0  0.4374999999999999  0.28125  0.5937500000000001  1.0000
  O   O4053     1.0  0.4374999999999999  0.3437499999999999  0.5937500000000001  1.0000
  O   O4054     1.0  0.4374999999999999  0.4062499999999999  0.5937500000000001  1.0000
  O   O4055     1.0  0.4374999999999999  0.4687499999999999  0.5937500000000001  1.0000
  O   O4056     1.0  0.4374999999999999  0.5312499999999999  0.5937500000000001  1.0000
  O   O4057     1.0  0.4374999999999999  0.5937499999999998  0.5937500000000001  1.0000
  O   O4058     1.0  0.4374999999999999  0.65625  0.5937500000000001  1.0000
  O   O4059     1.0  0.4374999999999999  0.7187499999999999  0.5937500000000001  1.0000
  O   O4060     1.0  0.4374999999999999  0.7812499999999999  0.5937500000000001  1.0000
  O   O4061     1.0  0.4374999999999999  0.8437499999999998  0.5937500000000001  1.0000
  O   O4062     1.0  0.4374999999999999  0.9062499999999998  0.5937500000000001  1.0000
  O   O4063     1.0  0.4374999999999999  0.9687499999999998  0.5937500000000001  1.0000
  O   O4064     1.0  0.4374999999999999  0.031249999999999993  0.5937500000000001  1.0000
  O   O4065     1.0  0.4687499999999999  0.062499999999999986  0.5625000000000001  1.0000
  O   O4066     1.0  0.4687499999999999  0.12499999999999997  0.5625000000000001  1.0000
  O   O4067     1.0  0.4687499999999999  0.18749999999999997  0.5625000000000001  1.0000
  O   O4068     1.0  0.4687499999999999  0.24999999999999983  0.5625000000000001  1.0000
  O   O4069     1.0  0.4687499999999999  0.3125  0.5625000000000001  1.0000
  O   O4070     1.0  0.4687499999999999  0.37499999999999994  0.5625000000000001  1.0000
  O   O4071     1.0  0.4687499999999999  0.4374999999999999  0.5625000000000001  1.0000
  O   O4072     1.0  0.4687499999999999  0.49999999999999983  0.5625000000000001  1.0000
  O   O4073     1.0  0.4687499999999999  0.5625  0.5625000000000001  1.0000
  O   O4074     1.0  0.4687499999999999  0.6249999999999998  0.5625000000000001  1.0000
  O   O4075     1.0  0.4687499999999999  0.6875  0.5625000000000001  1.0000
  O   O4076     1.0  0.4687499999999999  0.7500000000000001  0.5625000000000001  1.0000
  O   O4077     1.0  0.4687499999999999  0.8124999999999998  0.5625000000000001  1.0000
  O   O4078     1.0  0.4687499999999999  0.8749999999999998  0.5625000000000001  1.0000
  O   O4079     1.0  0.4687499999999999  0.9374999999999998  0.5625000000000001  1.0000
  O   O4080     1.0  0.4687499999999999  0.0  0.5625000000000001  1.0000
  O   O4081     1.0  0.49999999999999994  0.09374999999999999  0.53125  1.0000
  O   O4082     1.0  0.49999999999999994  0.15625  0.53125  1.0000
  O   O4083     1.0  0.49999999999999994  0.21874999999999994  0.53125  1.0000
  O   O4084     1.0  0.49999999999999994  0.28125  0.53125  1.0000
  O   O4085     1.0  0.49999999999999994  0.3437499999999999  0.53125  1.0000
  O   O4086     1.0  0.49999999999999994  0.4062499999999999  0.53125  1.0000
  O   O4087     1.0  0.49999999999999994  0.4687499999999999  0.53125  1.0000
  O   O4088     1.0  0.49999999999999994  0.5312499999999999  0.53125  1.0000
  O   O4089     1.0  0.49999999999999994  0.5937499999999998  0.53125  1.0000
  O   O4090     1.0  0.49999999999999994  0.65625  0.53125  1.0000
  O   O4091     1.0  0.49999999999999994  0.7187499999999999  0.53125  1.0000
  O   O4092     1.0  0.49999999999999994  0.7812499999999999  0.53125  1.0000
  O   O4093     1.0  0.49999999999999994  0.8437500000000001  0.53125  1.0000
  O   O4094     1.0  0.49999999999999994  0.9062499999999998  0.53125  1.0000
  O   O4095     1.0  0.49999999999999994  0.9687499999999998  0.53125  1.0000
  O   O4096     1.0  0.49999999999999994  0.031249999999999993  0.53125  1.0000
  O   O4097     1.0  0.5312499999999999  0.062499999999999986  0.5  1.0000
  O   O4098     1.0  0.5312499999999999  0.12499999999999997  0.5  1.0000
  O   O4099     1.0  0.5312499999999999  0.18749999999999997  0.5  1.0000
  O   O4100     1.0  0.5312499999999999  0.24999999999999994  0.5  1.0000
  O   O4101     1.0  0.5312499999999999  0.3125  0.5  1.0000
  O   O4102     1.0  0.5312499999999999  0.37499999999999994  0.5  1.0000
  O   O4103     1.0  0.5312499999999999  0.4374999999999999  0.5  1.0000
  O   O4104     1.0  0.5312499999999999  0.49999999999999983  0.5  1.0000
  O   O4105     1.0  0.5312499999999999  0.5624999999999998  0.5  1.0000
  O   O4106     1.0  0.5312499999999999  0.6249999999999998  0.5  1.0000
  O   O4107     1.0  0.5312499999999999  0.6875  0.5  1.0000
  O   O4108     1.0  0.5312499999999999  0.7499999999999999  0.5  1.0000
  O   O4109     1.0  0.5312499999999999  0.8124999999999998  0.5  1.0000
  O   O4110     1.0  0.5312499999999999  0.8749999999999998  0.5  1.0000
  O   O4111     1.0  0.5312499999999999  0.9374999999999998  0.5  1.0000
  O   O4112     1.0  0.5312499999999999  0.0  0.5  1.0000
  O   O4113     1.0  0.5624999999999999  0.09374999999999999  0.4687500000000001  1.0000
  O   O4114     1.0  0.5624999999999999  0.15625  0.4687500000000001  1.0000
  O   O4115     1.0  0.5624999999999999  0.21874999999999994  0.4687500000000001  1.0000
  O   O4116     1.0  0.5624999999999999  0.2812499999999999  0.4687500000000001  1.0000
  O   O4117     1.0  0.5624999999999999  0.3437499999999999  0.4687500000000001  1.0000
  O   O4118     1.0  0.5624999999999999  0.4062499999999999  0.4687500000000001  1.0000
  O   O4119     1.0  0.5624999999999999  0.4687499999999999  0.4687500000000001  1.0000
  O   O4120     1.0  0.5624999999999999  0.53125  0.4687500000000001  1.0000
  O   O4121     1.0  0.5624999999999999  0.59375  0.4687500000000001  1.0000
  O   O4122     1.0  0.5624999999999999  0.65625  0.4687500000000001  1.0000
  O   O4123     1.0  0.5624999999999999  0.7187499999999999  0.4687500000000001  1.0000
  O   O4124     1.0  0.5624999999999999  0.7812499999999999  0.4687500000000001  1.0000
  O   O4125     1.0  0.5624999999999999  0.8437500000000001  0.4687500000000001  1.0000
  O   O4126     1.0  0.5624999999999999  0.9062499999999998  0.4687500000000001  1.0000
  O   O4127     1.0  0.5624999999999999  0.9687499999999998  0.4687500000000001  1.0000
  O   O4128     1.0  0.5624999999999999  0.031249999999999993  0.4687500000000001  1.0000
  O   O4129     1.0  0.5937499999999999  0.062499999999999986  0.4375000000000001  1.0000
  O   O4130     1.0  0.5937499999999999  0.12499999999999997  0.4375000000000001  1.0000
  O   O4131     1.0  0.5937499999999999  0.18749999999999997  0.4375000000000001  1.0000
  O   O4132     1.0  0.5937499999999999  0.24999999999999994  0.4375000000000001  1.0000
  O   O4133     1.0  0.5937499999999999  0.3125  0.4375000000000001  1.0000
  O   O4134     1.0  0.5937499999999999  0.37499999999999994  0.4375000000000001  1.0000
  O   O4135     1.0  0.5937499999999999  0.4374999999999999  0.4375000000000001  1.0000
  O   O4136     1.0  0.5937499999999999  0.49999999999999983  0.4375000000000001  1.0000
  O   O4137     1.0  0.5937499999999999  0.5624999999999998  0.4375000000000001  1.0000
  O   O4138     1.0  0.5937499999999999  0.6249999999999998  0.4375000000000001  1.0000
  O   O4139     1.0  0.5937499999999999  0.6875  0.4375000000000001  1.0000
  O   O4140     1.0  0.5937499999999999  0.7499999999999999  0.4375000000000001  1.0000
  O   O4141     1.0  0.5937499999999999  0.8124999999999998  0.4375000000000001  1.0000
  O   O4142     1.0  0.5937499999999999  0.8749999999999998  0.4375000000000001  1.0000
  O   O4143     1.0  0.5937499999999999  0.9374999999999998  0.4375000000000001  1.0000
  O   O4144     1.0  0.5937499999999999  0.0  0.4375000000000001  1.0000
  O   O4145     1.0  0.6250000000000002  0.09374999999999999  0.40624999999999994  1.0000
  O   O4146     1.0  0.6250000000000002  0.15625  0.40624999999999994  1.0000
  O   O4147     1.0  0.6250000000000002  0.21874999999999994  0.40624999999999994  1.0000
  O   O4148     1.0  0.6250000000000002  0.2812499999999999  0.40624999999999994  1.0000
  O   O4149     1.0  0.6250000000000002  0.3437499999999999  0.40624999999999994  1.0000
  O   O4150     1.0  0.6250000000000002  0.4062499999999999  0.40624999999999994  1.0000
  O   O4151     1.0  0.6250000000000002  0.4687499999999999  0.40624999999999994  1.0000
  O   O4152     1.0  0.6250000000000002  0.53125  0.40624999999999994  1.0000
  O   O4153     1.0  0.6250000000000002  0.59375  0.40624999999999994  1.0000
  O   O4154     1.0  0.6250000000000002  0.6562499999999998  0.40624999999999994  1.0000
  O   O4155     1.0  0.6250000000000002  0.7187499999999999  0.40624999999999994  1.0000
  O   O4156     1.0  0.6250000000000002  0.7812499999999999  0.40624999999999994  1.0000
  O   O4157     1.0  0.6250000000000002  0.8437499999999998  0.40624999999999994  1.0000
  O   O4158     1.0  0.6250000000000002  0.9062499999999998  0.40624999999999994  1.0000
  O   O4159     1.0  0.6250000000000002  0.9687499999999998  0.40624999999999994  1.0000
  O   O4160     1.0  0.6250000000000002  0.031249999999999993  0.40624999999999994  1.0000
  O   O4161     1.0  0.65625  0.062499999999999986  0.375  1.0000
  O   O4162     1.0  0.65625  0.12499999999999997  0.375  1.0000
  O   O4163     1.0  0.65625  0.18749999999999997  0.375  1.0000
  O   O4164     1.0  0.65625  0.24999999999999994  0.375  1.0000
  O   O4165     1.0  0.65625  0.3125  0.375  1.0000
  O   O4166     1.0  0.65625  0.3749999999999999  0.375  1.0000
  O   O4167     1.0  0.65625  0.4374999999999999  0.375  1.0000
  O   O4168     1.0  0.65625  0.49999999999999983  0.375  1.0000
  O   O4169     1.0  0.65625  0.5624999999999998  0.375  1.0000
  O   O4170     1.0  0.65625  0.6249999999999998  0.375  1.0000
  O   O4171     1.0  0.65625  0.6875  0.375  1.0000
  O   O4172     1.0  0.65625  0.7499999999999999  0.375  1.0000
  O   O4173     1.0  0.65625  0.8124999999999998  0.375  1.0000
  O   O4174     1.0  0.65625  0.8749999999999998  0.375  1.0000
  O   O4175     1.0  0.65625  0.9374999999999998  0.375  1.0000
  O   O4176     1.0  0.65625  0.0  0.375  1.0000
  O   O4177     1.0  0.6875000000000001  0.09374999999999999  0.34375000000000006  1.0000
  O   O4178     1.0  0.6875000000000001  0.15625  0.34375000000000006  1.0000
  O   O4179     1.0  0.6875000000000001  0.21874999999999994  0.34375000000000006  1.0000
  O   O4180     1.0  0.6875000000000001  0.2812499999999999  0.34375000000000006  1.0000
  O   O4181     1.0  0.6875000000000001  0.34375  0.34375000000000006  1.0000
  O   O4182     1.0  0.6875000000000001  0.4062499999999999  0.34375000000000006  1.0000
  O   O4183     1.0  0.6875000000000001  0.4687499999999999  0.34375000000000006  1.0000
  O   O4184     1.0  0.6875000000000001  0.53125  0.34375000000000006  1.0000
  O   O4185     1.0  0.6875000000000001  0.59375  0.34375000000000006  1.0000
  O   O4186     1.0  0.6875000000000001  0.6562499999999998  0.34375000000000006  1.0000
  O   O4187     1.0  0.6875000000000001  0.7187499999999999  0.34375000000000006  1.0000
  O   O4188     1.0  0.6875000000000001  0.7812499999999999  0.34375000000000006  1.0000
  O   O4189     1.0  0.6875000000000001  0.8437499999999998  0.34375000000000006  1.0000
  O   O4190     1.0  0.6875000000000001  0.9062499999999998  0.34375000000000006  1.0000
  O   O4191     1.0  0.6875000000000001  0.9687499999999998  0.34375000000000006  1.0000
  O   O4192     1.0  0.6875000000000001  0.031249999999999993  0.34375000000000006  1.0000
  O   O4193     1.0  0.71875  0.062499999999999986  0.31250000000000006  1.0000
  O   O4194     1.0  0.71875  0.12499999999999997  0.31250000000000006  1.0000
  O   O4195     1.0  0.71875  0.18749999999999997  0.31250000000000006  1.0000
  O   O4196     1.0  0.71875  0.24999999999999994  0.31250000000000006  1.0000
  O   O4197     1.0  0.71875  0.3124999999999999  0.31250000000000006  1.0000
  O   O4198     1.0  0.71875  0.3749999999999999  0.31250000000000006  1.0000
  O   O4199     1.0  0.71875  0.4374999999999999  0.31250000000000006  1.0000
  O   O4200     1.0  0.71875  0.49999999999999983  0.31250000000000006  1.0000
  O   O4201     1.0  0.71875  0.5624999999999998  0.31250000000000006  1.0000
  O   O4202     1.0  0.71875  0.625  0.31250000000000006  1.0000
  O   O4203     1.0  0.71875  0.6875  0.31250000000000006  1.0000
  O   O4204     1.0  0.71875  0.7499999999999999  0.31250000000000006  1.0000
  O   O4205     1.0  0.71875  0.8124999999999998  0.31250000000000006  1.0000
  O   O4206     1.0  0.71875  0.8749999999999998  0.31250000000000006  1.0000
  O   O4207     1.0  0.71875  0.9374999999999998  0.31250000000000006  1.0000
  O   O4208     1.0  0.71875  0.0  0.31250000000000006  1.0000
  O   O4209     1.0  0.75  0.09374999999999999  0.2812499999999999  1.0000
  O   O4210     1.0  0.75  0.15625  0.2812499999999999  1.0000
  O   O4211     1.0  0.75  0.21874999999999994  0.2812499999999999  1.0000
  O   O4212     1.0  0.75  0.28125  0.2812499999999999  1.0000
  O   O4213     1.0  0.75  0.34375  0.2812499999999999  1.0000
  O   O4214     1.0  0.75  0.4062499999999999  0.2812499999999999  1.0000
  O   O4215     1.0  0.75  0.4687499999999999  0.2812499999999999  1.0000
  O   O4216     1.0  0.75  0.53125  0.2812499999999999  1.0000
  O   O4217     1.0  0.75  0.5937499999999998  0.2812499999999999  1.0000
  O   O4218     1.0  0.75  0.6562499999999998  0.2812499999999999  1.0000
  O   O4219     1.0  0.75  0.7187499999999999  0.2812499999999999  1.0000
  O   O4220     1.0  0.75  0.7812499999999999  0.2812499999999999  1.0000
  O   O4221     1.0  0.75  0.8437499999999998  0.2812499999999999  1.0000
  O   O4222     1.0  0.75  0.9062499999999998  0.2812499999999999  1.0000
  O   O4223     1.0  0.75  0.9687499999999998  0.2812499999999999  1.0000
  O   O4224     1.0  0.75  0.031249999999999993  0.2812499999999999  1.0000
  O   O4225     1.0  0.7812499999999999  0.062499999999999986  0.25  1.0000
  O   O4226     1.0  0.7812499999999999  0.12499999999999997  0.25  1.0000
  O   O4227     1.0  0.7812499999999999  0.18749999999999997  0.25  1.0000
  O   O4228     1.0  0.7812499999999999  0.24999999999999994  0.25  1.0000
  O   O4229     1.0  0.7812499999999999  0.3124999999999999  0.25  1.0000
  O   O4230     1.0  0.7812499999999999  0.3749999999999999  0.25  1.0000
  O   O4231     1.0  0.7812499999999999  0.4374999999999999  0.25  1.0000
  O   O4232     1.0  0.7812499999999999  0.49999999999999983  0.25  1.0000
  O   O4233     1.0  0.7812499999999999  0.5624999999999998  0.25  1.0000
  O   O4234     1.0  0.7812499999999999  0.625  0.25  1.0000
  O   O4235     1.0  0.7812499999999999  0.6875  0.25  1.0000
  O   O4236     1.0  0.7812499999999999  0.7499999999999999  0.25  1.0000
  O   O4237     1.0  0.7812499999999999  0.8125000000000001  0.25  1.0000
  O   O4238     1.0  0.7812499999999999  0.8749999999999998  0.25  1.0000
  O   O4239     1.0  0.7812499999999999  0.9374999999999998  0.25  1.0000
  O   O4240     1.0  0.7812499999999999  0.0  0.25  1.0000
  O   O4241     1.0  0.8124999999999999  0.09374999999999999  0.21875000000000006  1.0000
  O   O4242     1.0  0.8124999999999999  0.15625  0.21875000000000006  1.0000
  O   O4243     1.0  0.8124999999999999  0.21874999999999994  0.21875000000000006  1.0000
  O   O4244     1.0  0.8124999999999999  0.28125  0.21875000000000006  1.0000
  O   O4245     1.0  0.8124999999999999  0.34375  0.21875000000000006  1.0000
  O   O4246     1.0  0.8124999999999999  0.4062499999999999  0.21875000000000006  1.0000
  O   O4247     1.0  0.8124999999999999  0.4687499999999999  0.21875000000000006  1.0000
  O   O4248     1.0  0.8124999999999999  0.5312499999999999  0.21875000000000006  1.0000
  O   O4249     1.0  0.8124999999999999  0.5937499999999998  0.21875000000000006  1.0000
  O   O4250     1.0  0.8124999999999999  0.6562499999999998  0.21875000000000006  1.0000
  O   O4251     1.0  0.8124999999999999  0.7187499999999999  0.21875000000000006  1.0000
  O   O4252     1.0  0.8124999999999999  0.7812499999999999  0.21875000000000006  1.0000
  O   O4253     1.0  0.8124999999999999  0.8437499999999998  0.21875000000000006  1.0000
  O   O4254     1.0  0.8124999999999999  0.9062499999999998  0.21875000000000006  1.0000
  O   O4255     1.0  0.8124999999999999  0.9687499999999998  0.21875000000000006  1.0000
  O   O4256     1.0  0.8124999999999999  0.031249999999999993  0.21875000000000006  1.0000
  O   O4257     1.0  0.8437500000000001  0.062499999999999986  0.18750000000000006  1.0000
  O   O4258     1.0  0.8437500000000001  0.12499999999999997  0.18750000000000006  1.0000
  O   O4259     1.0  0.8437500000000001  0.18749999999999997  0.18750000000000006  1.0000
  O   O4260     1.0  0.8437500000000001  0.24999999999999994  0.18750000000000006  1.0000
  O   O4261     1.0  0.8437500000000001  0.3124999999999999  0.18750000000000006  1.0000
  O   O4262     1.0  0.8437500000000001  0.3749999999999999  0.18750000000000006  1.0000
  O   O4263     1.0  0.8437500000000001  0.4374999999999999  0.18750000000000006  1.0000
  O   O4264     1.0  0.8437500000000001  0.4999999999999999  0.18750000000000006  1.0000
  O   O4265     1.0  0.8437500000000001  0.5625  0.18750000000000006  1.0000
  O   O4266     1.0  0.8437500000000001  0.625  0.18750000000000006  1.0000
  O   O4267     1.0  0.8437500000000001  0.6874999999999998  0.18750000000000006  1.0000
  O   O4268     1.0  0.8437500000000001  0.7499999999999999  0.18750000000000006  1.0000
  O   O4269     1.0  0.8437500000000001  0.8125000000000001  0.18750000000000006  1.0000
  O   O4270     1.0  0.8437500000000001  0.8749999999999998  0.18750000000000006  1.0000
  O   O4271     1.0  0.8437500000000001  0.9374999999999998  0.18750000000000006  1.0000
  O   O4272     1.0  0.8437500000000001  0.9999999999999999  0.18750000000000006  1.0000
  O   O4273     1.0  0.8749999999999999  0.09374999999999999  0.15625000000000003  1.0000
  O   O4274     1.0  0.8749999999999999  0.15625  0.15625000000000003  1.0000
  O   O4275     1.0  0.8749999999999999  0.21874999999999994  0.15625000000000003  1.0000
  O   O4276     1.0  0.8749999999999999  0.28125  0.15625000000000003  1.0000
  O   O4277     1.0  0.8749999999999999  0.34375  0.15625000000000003  1.0000
  O   O4278     1.0  0.8749999999999999  0.4062499999999999  0.15625000000000003  1.0000
  O   O4279     1.0  0.8749999999999999  0.4687499999999999  0.15625000000000003  1.0000
  O   O4280     1.0  0.8749999999999999  0.5312499999999999  0.15625000000000003  1.0000
  O   O4281     1.0  0.8749999999999999  0.5937499999999998  0.15625000000000003  1.0000
  O   O4282     1.0  0.8749999999999999  0.6562499999999998  0.15625000000000003  1.0000
  O   O4283     1.0  0.8749999999999999  0.7187499999999999  0.15625000000000003  1.0000
  O   O4284     1.0  0.8749999999999999  0.7812499999999999  0.15625000000000003  1.0000
  O   O4285     1.0  0.8749999999999999  0.8437499999999998  0.15625000000000003  1.0000
  O   O4286     1.0  0.8749999999999999  0.9062499999999998  0.15625000000000003  1.0000
  O   O4287     1.0  0.8749999999999999  0.9687499999999998  0.15625000000000003  1.0000
  O   O4288     1.0  0.8749999999999999  0.031249999999999993  0.15625000000000003  1.0000
  O   O4289     1.0  0.9062500000000002  0.062499999999999986  0.12499999999999972  1.0000
  O   O4290     1.0  0.9062500000000002  0.12499999999999997  0.12499999999999972  1.0000
  O   O4291     1.0  0.9062500000000002  0.18749999999999997  0.12499999999999972  1.0000
  O   O4292     1.0  0.9062500000000002  0.24999999999999983  0.12499999999999972  1.0000
  O   O4293     1.0  0.9062500000000002  0.3124999999999999  0.12499999999999972  1.0000
  O   O4294     1.0  0.9062500000000002  0.37499999999999994  0.12499999999999972  1.0000
  O   O4295     1.0  0.9062500000000002  0.4374999999999999  0.12499999999999972  1.0000
  O   O4296     1.0  0.9062500000000002  0.4999999999999999  0.12499999999999972  1.0000
  O   O4297     1.0  0.9062500000000002  0.5625  0.12499999999999972  1.0000
  O   O4298     1.0  0.9062500000000002  0.625  0.12499999999999972  1.0000
  O   O4299     1.0  0.9062500000000002  0.6874999999999998  0.12499999999999972  1.0000
  O   O4300     1.0  0.9062500000000002  0.7499999999999999  0.12499999999999972  1.0000
  O   O4301     1.0  0.9062500000000002  0.8124999999999998  0.12499999999999972  1.0000
  O   O4302     1.0  0.9062500000000002  0.8749999999999998  0.12499999999999972  1.0000
  O   O4303     1.0  0.9062500000000002  0.9374999999999998  0.12499999999999972  1.0000
  O   O4304     1.0  0.9062500000000002  0.9999999999999999  0.12499999999999972  1.0000
  O   O4305     1.0  0.9375  0.09374999999999999  0.09374999999999983  1.0000
  O   O4306     1.0  0.9375  0.15625  0.09374999999999983  1.0000
  O   O4307     1.0  0.9375  0.21874999999999994  0.09374999999999983  1.0000
  O   O4308     1.0  0.9375  0.28125  0.09374999999999983  1.0000
  O   O4309     1.0  0.9375  0.3437499999999999  0.09374999999999983  1.0000
  O   O4310     1.0  0.9375  0.4062499999999999  0.09374999999999983  1.0000
  O   O4311     1.0  0.9375  0.4687499999999999  0.09374999999999983  1.0000
  O   O4312     1.0  0.9375  0.5312499999999999  0.09374999999999983  1.0000
  O   O4313     1.0  0.9375  0.5937499999999998  0.09374999999999983  1.0000
  O   O4314     1.0  0.9375  0.6562499999999998  0.09374999999999983  1.0000
  O   O4315     1.0  0.9375  0.7187499999999999  0.09374999999999983  1.0000
  O   O4316     1.0  0.9375  0.7812499999999999  0.09374999999999983  1.0000
  O   O4317     1.0  0.9375  0.8437499999999998  0.09374999999999983  1.0000
  O   O4318     1.0  0.9375  0.9062499999999998  0.09374999999999983  1.0000
  O   O4319     1.0  0.9375  0.9687499999999998  0.09374999999999983  1.0000
  O   O4320     1.0  0.9375  0.031249999999999993  0.09374999999999983  1.0000
  O   O4321     1.0  0.9687500000000002  0.062499999999999986  0.06249999999999983  1.0000
  O   O4322     1.0  0.9687500000000002  0.12499999999999997  0.06249999999999983  1.0000
  O   O4323     1.0  0.9687500000000002  0.18749999999999997  0.06249999999999983  1.0000
  O   O4324     1.0  0.9687500000000002  0.24999999999999983  0.06249999999999983  1.0000
  O   O4325     1.0  0.9687500000000002  0.3125  0.06249999999999983  1.0000
  O   O4326     1.0  0.9687500000000002  0.37499999999999994  0.06249999999999983  1.0000
  O   O4327     1.0  0.9687500000000002  0.4374999999999999  0.06249999999999983  1.0000
  O   O4328     1.0  0.9687500000000002  0.49999999999999983  0.06249999999999983  1.0000
  O   O4329     1.0  0.9687500000000002  0.5625  0.06249999999999983  1.0000
  O   O4330     1.0  0.9687500000000002  0.6249999999999998  0.06249999999999983  1.0000
  O   O4331     1.0  0.9687500000000002  0.6874999999999998  0.06249999999999983  1.0000
  O   O4332     1.0  0.9687500000000002  0.7499999999999999  0.06249999999999983  1.0000
  O   O4333     1.0  0.9687500000000002  0.8124999999999998  0.06249999999999983  1.0000
  O   O4334     1.0  0.9687500000000002  0.8749999999999998  0.06249999999999983  1.0000
  O   O4335     1.0  0.9687500000000002  0.9374999999999998  0.06249999999999983  1.0000
  O   O4336     1.0  0.9687500000000002  0.9999999999999999  0.06249999999999983  1.0000
  O   O4337     1.0  0.0  0.09374999999999999  0.031249999999999833  1.0000
  O   O4338     1.0  0.0  0.15625  0.031249999999999833  1.0000
  O   O4339     1.0  0.0  0.21874999999999994  0.031249999999999833  1.0000
  O   O4340     1.0  0.0  0.28125  0.031249999999999833  1.0000
  O   O4341     1.0  0.0  0.3437499999999999  0.031249999999999833  1.0000
  O   O4342     1.0  0.0  0.4062499999999999  0.031249999999999833  1.0000
  O   O4343     1.0  0.0  0.4687499999999999  0.031249999999999833  1.0000
  O   O4344     1.0  0.0  0.5312499999999999  0.031249999999999833  1.0000
  O   O4345     1.0  0.0  0.59375  0.031249999999999833  1.0000
  O   O4346     1.0  0.0  0.65625  0.031249999999999833  1.0000
  O   O4347     1.0  0.0  0.7187499999999999  0.031249999999999833  1.0000
  O   O4348     1.0  0.0  0.7812499999999999  0.031249999999999833  1.0000
  O   O4349     1.0  0.0  0.8437499999999998  0.031249999999999833  1.0000
  O   O4350     1.0  0.0  0.9062499999999998  0.031249999999999833  1.0000
  O   O4351     1.0  0.0  0.9687499999999998  0.031249999999999833  1.0000
  O   O4352     1.0  0.0  0.031249999999999993  0.031249999999999833  1.0000
  O   O4353     1.0  0.09375  0.062499999999999986  0.0  1.0000
  O   O4354     1.0  0.09375  0.12499999999999997  0.0  1.0000
  O   O4355     1.0  0.09375  0.18749999999999997  0.0  1.0000
  O   O4356     1.0  0.09375  0.24999999999999994  0.0  1.0000
  O   O4357     1.0  0.09375  0.3125  0.0  1.0000
  O   O4358     1.0  0.09375  0.37499999999999994  0.0  1.0000
  O   O4359     1.0  0.09375  0.4374999999999999  0.0  1.0000
  O   O4360     1.0  0.09375  0.49999999999999983  0.0  1.0000
  O   O4361     1.0  0.09375  0.5624999999999998  0.0  1.0000
  O   O4362     1.0  0.09375  0.6249999999999998  0.0  1.0000
  O   O4363     1.0  0.09375  0.6874999999999998  0.0  1.0000
  O   O4364     1.0  0.09375  0.7499999999999999  0.0  1.0000
  O   O4365     1.0  0.09375  0.8124999999999998  0.0  1.0000
  O   O4366     1.0  0.09375  0.8749999999999998  0.0  1.0000
  O   O4367     1.0  0.09375  0.9374999999999998  0.0  1.0000
  O   O4368     1.0  0.09375  0.9999999999999999  0.0  1.0000
  O   O4369     1.0  0.125  0.09374999999999999  0.9687500000000001  1.0000
  O   O4370     1.0  0.125  0.15625  0.9687500000000001  1.0000
  O   O4371     1.0  0.125  0.21874999999999994  0.9687500000000001  1.0000
  O   O4372     1.0  0.125  0.2812499999999999  0.9687500000000001  1.0000
  O   O4373     1.0  0.125  0.3437499999999999  0.9687500000000001  1.0000
  O   O4374     1.0  0.125  0.4062499999999999  0.9687500000000001  1.0000
  O   O4375     1.0  0.125  0.4687499999999999  0.9687500000000001  1.0000
  O   O4376     1.0  0.125  0.53125  0.9687500000000001  1.0000
  O   O4377     1.0  0.125  0.59375  0.9687500000000001  1.0000
  O   O4378     1.0  0.125  0.6562499999999998  0.9687500000000001  1.0000
  O   O4379     1.0  0.125  0.7187499999999999  0.9687500000000001  1.0000
  O   O4380     1.0  0.125  0.7812500000000001  0.9687500000000001  1.0000
  O   O4381     1.0  0.125  0.8437499999999998  0.9687500000000001  1.0000
  O   O4382     1.0  0.125  0.9062499999999998  0.9687500000000001  1.0000
  O   O4383     1.0  0.125  0.9687499999999998  0.9687500000000001  1.0000
  O   O4384     1.0  0.125  0.031249999999999993  0.9687500000000001  1.0000
  O   O4385     1.0  0.15625000000000006  0.062499999999999986  0.9375000000000001  1.0000
  O   O4386     1.0  0.15625000000000006  0.12499999999999997  0.9375000000000001  1.0000
  O   O4387     1.0  0.15625000000000006  0.18749999999999997  0.9375000000000001  1.0000
  O   O4388     1.0  0.15625000000000006  0.24999999999999994  0.9375000000000001  1.0000
  O   O4389     1.0  0.15625000000000006  0.3125  0.9375000000000001  1.0000
  O   O4390     1.0  0.15625000000000006  0.3749999999999999  0.9375000000000001  1.0000
  O   O4391     1.0  0.15625000000000006  0.4374999999999999  0.9375000000000001  1.0000
  O   O4392     1.0  0.15625000000000006  0.49999999999999983  0.9375000000000001  1.0000
  O   O4393     1.0  0.15625000000000006  0.5624999999999998  0.9375000000000001  1.0000
  O   O4394     1.0  0.15625000000000006  0.6249999999999998  0.9375000000000001  1.0000
  O   O4395     1.0  0.15625000000000006  0.6875  0.9375000000000001  1.0000
  O   O4396     1.0  0.15625000000000006  0.7499999999999999  0.9375000000000001  1.0000
  O   O4397     1.0  0.15625000000000006  0.8124999999999998  0.9375000000000001  1.0000
  O   O4398     1.0  0.15625000000000006  0.8749999999999998  0.9375000000000001  1.0000
  O   O4399     1.0  0.15625000000000006  0.9374999999999998  0.9375000000000001  1.0000
  O   O4400     1.0  0.15625000000000006  0.0  0.9375000000000001  1.0000
  O   O4401     1.0  0.1875  0.09374999999999999  0.9062500000000001  1.0000
  O   O4402     1.0  0.1875  0.15625  0.9062500000000001  1.0000
  O   O4403     1.0  0.1875  0.21874999999999994  0.9062500000000001  1.0000
  O   O4404     1.0  0.1875  0.2812499999999999  0.9062500000000001  1.0000
  O   O4405     1.0  0.1875  0.34375  0.9062500000000001  1.0000
  O   O4406     1.0  0.1875  0.4062499999999999  0.9062500000000001  1.0000
  O   O4407     1.0  0.1875  0.4687499999999999  0.9062500000000001  1.0000
  O   O4408     1.0  0.1875  0.53125  0.9062500000000001  1.0000
  O   O4409     1.0  0.1875  0.59375  0.9062500000000001  1.0000
  O   O4410     1.0  0.1875  0.6562499999999998  0.9062500000000001  1.0000
  O   O4411     1.0  0.1875  0.7187499999999999  0.9062500000000001  1.0000
  O   O4412     1.0  0.1875  0.7812499999999999  0.9062500000000001  1.0000
  O   O4413     1.0  0.1875  0.8437499999999998  0.9062500000000001  1.0000
  O   O4414     1.0  0.1875  0.9062499999999998  0.9062500000000001  1.0000
  O   O4415     1.0  0.1875  0.9687499999999998  0.9062500000000001  1.0000
  O   O4416     1.0  0.1875  0.031249999999999993  0.9062500000000001  1.0000
  O   O4417     1.0  0.21875  0.062499999999999986  0.875  1.0000
  O   O4418     1.0  0.21875  0.12499999999999997  0.875  1.0000
  O   O4419     1.0  0.21875  0.18749999999999997  0.875  1.0000
  O   O4420     1.0  0.21875  0.24999999999999994  0.875  1.0000
  O   O4421     1.0  0.21875  0.3124999999999999  0.875  1.0000
  O   O4422     1.0  0.21875  0.3749999999999999  0.875  1.0000
  O   O4423     1.0  0.21875  0.4374999999999999  0.875  1.0000
  O   O4424     1.0  0.21875  0.49999999999999983  0.875  1.0000
  O   O4425     1.0  0.21875  0.5624999999999998  0.875  1.0000
  O   O4426     1.0  0.21875  0.6249999999999998  0.875  1.0000
  O   O4427     1.0  0.21875  0.6875  0.875  1.0000
  O   O4428     1.0  0.21875  0.7499999999999999  0.875  1.0000
  O   O4429     1.0  0.21875  0.8124999999999998  0.875  1.0000
  O   O4430     1.0  0.21875  0.8750000000000001  0.875  1.0000
  O   O4431     1.0  0.21875  0.9374999999999998  0.875  1.0000
  O   O4432     1.0  0.21875  0.0  0.875  1.0000
  O   O4433     1.0  0.25  0.09374999999999999  0.84375  1.0000
  O   O4434     1.0  0.25  0.15625  0.84375  1.0000
  O   O4435     1.0  0.25  0.21874999999999994  0.84375  1.0000
  O   O4436     1.0  0.25  0.28125  0.84375  1.0000
  O   O4437     1.0  0.25  0.34375  0.84375  1.0000
  O   O4438     1.0  0.25  0.4062499999999999  0.84375  1.0000
  O   O4439     1.0  0.25  0.4687499999999999  0.84375  1.0000
  O   O4440     1.0  0.25  0.53125  0.84375  1.0000
  O   O4441     1.0  0.25  0.5937499999999998  0.84375  1.0000
  O   O4442     1.0  0.25  0.6562499999999998  0.84375  1.0000
  O   O4443     1.0  0.25  0.7187499999999999  0.84375  1.0000
  O   O4444     1.0  0.25  0.7812499999999999  0.84375  1.0000
  O   O4445     1.0  0.25  0.8437499999999998  0.84375  1.0000
  O   O4446     1.0  0.25  0.9062499999999998  0.84375  1.0000
  O   O4447     1.0  0.25  0.9687499999999998  0.84375  1.0000
  O   O4448     1.0  0.25  0.031249999999999993  0.84375  1.0000
  O   O4449     1.0  0.28125  0.062499999999999986  0.8125  1.0000
  O   O4450     1.0  0.28125  0.12499999999999997  0.8125  1.0000
  O   O4451     1.0  0.28125  0.18749999999999997  0.8125  1.0000
  O   O4452     1.0  0.28125  0.24999999999999994  0.8125  1.0000
  O   O4453     1.0  0.28125  0.3124999999999999  0.8125  1.0000
  O   O4454     1.0  0.28125  0.3749999999999999  0.8125  1.0000
  O   O4455     1.0  0.28125  0.4374999999999999  0.8125  1.0000
  O   O4456     1.0  0.28125  0.49999999999999983  0.8125  1.0000
  O   O4457     1.0  0.28125  0.5625  0.8125  1.0000
  O   O4458     1.0  0.28125  0.625  0.8125  1.0000
  O   O4459     1.0  0.28125  0.6875  0.8125  1.0000
  O   O4460     1.0  0.28125  0.7499999999999999  0.8125  1.0000
  O   O4461     1.0  0.28125  0.8124999999999998  0.8125  1.0000
  O   O4462     1.0  0.28125  0.8750000000000001  0.8125  1.0000
  O   O4463     1.0  0.28125  0.9374999999999998  0.8125  1.0000
  O   O4464     1.0  0.28125  0.0  0.8125  1.0000
  O   O4465     1.0  0.3125  0.09374999999999999  0.78125  1.0000
  O   O4466     1.0  0.3125  0.15625  0.78125  1.0000
  O   O4467     1.0  0.3125  0.21874999999999994  0.78125  1.0000
  O   O4468     1.0  0.3125  0.28125  0.78125  1.0000
  O   O4469     1.0  0.3125  0.34375  0.78125  1.0000
  O   O4470     1.0  0.3125  0.4062499999999999  0.78125  1.0000
  O   O4471     1.0  0.3125  0.4687499999999999  0.78125  1.0000
  O   O4472     1.0  0.3125  0.5312499999999999  0.78125  1.0000
  O   O4473     1.0  0.3125  0.5937499999999998  0.78125  1.0000
  O   O4474     1.0  0.3125  0.6562499999999998  0.78125  1.0000
  O   O4475     1.0  0.3125  0.7187499999999999  0.78125  1.0000
  O   O4476     1.0  0.3125  0.7812499999999999  0.78125  1.0000
  O   O4477     1.0  0.3125  0.8437499999999998  0.78125  1.0000
  O   O4478     1.0  0.3125  0.9062499999999998  0.78125  1.0000
  O   O4479     1.0  0.3125  0.9687499999999998  0.78125  1.0000
  O   O4480     1.0  0.3125  0.031249999999999993  0.78125  1.0000
  O   O4481     1.0  0.34375  0.062499999999999986  0.7500000000000002  1.0000
  O   O4482     1.0  0.34375  0.12499999999999997  0.7500000000000002  1.0000
  O   O4483     1.0  0.34375  0.18749999999999997  0.7500000000000002  1.0000
  O   O4484     1.0  0.34375  0.24999999999999994  0.7500000000000002  1.0000
  O   O4485     1.0  0.34375  0.3124999999999999  0.7500000000000002  1.0000
  O   O4486     1.0  0.34375  0.3749999999999999  0.7500000000000002  1.0000
  O   O4487     1.0  0.34375  0.4374999999999999  0.7500000000000002  1.0000
  O   O4488     1.0  0.34375  0.49999999999999983  0.7500000000000002  1.0000
  O   O4489     1.0  0.34375  0.5625  0.7500000000000002  1.0000
  O   O4490     1.0  0.34375  0.625  0.7500000000000002  1.0000
  O   O4491     1.0  0.34375  0.6875  0.7500000000000002  1.0000
  O   O4492     1.0  0.34375  0.7499999999999999  0.7500000000000002  1.0000
  O   O4493     1.0  0.34375  0.8124999999999998  0.7500000000000002  1.0000
  O   O4494     1.0  0.34375  0.8749999999999998  0.7500000000000002  1.0000
  O   O4495     1.0  0.34375  0.9374999999999998  0.7500000000000002  1.0000
  O   O4496     1.0  0.34375  0.0  0.7500000000000002  1.0000
  O   O4497     1.0  0.375  0.09374999999999999  0.71875  1.0000
  O   O4498     1.0  0.375  0.15625  0.71875  1.0000
  O   O4499     1.0  0.375  0.21874999999999994  0.71875  1.0000
  O   O4500     1.0  0.375  0.28125  0.71875  1.0000
  O   O4501     1.0  0.375  0.34375  0.71875  1.0000
  O   O4502     1.0  0.375  0.4062499999999999  0.71875  1.0000
  O   O4503     1.0  0.375  0.4687499999999999  0.71875  1.0000
  O   O4504     1.0  0.375  0.5312499999999999  0.71875  1.0000
  O   O4505     1.0  0.375  0.5937499999999998  0.71875  1.0000
  O   O4506     1.0  0.375  0.6562499999999998  0.71875  1.0000
  O   O4507     1.0  0.375  0.7187499999999999  0.71875  1.0000
  O   O4508     1.0  0.375  0.7812499999999999  0.71875  1.0000
  O   O4509     1.0  0.375  0.8437499999999998  0.71875  1.0000
  O   O4510     1.0  0.375  0.9062499999999998  0.71875  1.0000
  O   O4511     1.0  0.375  0.9687499999999998  0.71875  1.0000
  O   O4512     1.0  0.375  0.031249999999999993  0.71875  1.0000
  O   O4513     1.0  0.4062499999999999  0.062499999999999986  0.6875000000000001  1.0000
  O   O4514     1.0  0.4062499999999999  0.12499999999999997  0.6875000000000001  1.0000
  O   O4515     1.0  0.4062499999999999  0.18749999999999997  0.6875000000000001  1.0000
  O   O4516     1.0  0.4062499999999999  0.24999999999999983  0.6875000000000001  1.0000
  O   O4517     1.0  0.4062499999999999  0.3124999999999999  0.6875000000000001  1.0000
  O   O4518     1.0  0.4062499999999999  0.37499999999999994  0.6875000000000001  1.0000
  O   O4519     1.0  0.4062499999999999  0.4374999999999999  0.6875000000000001  1.0000
  O   O4520     1.0  0.4062499999999999  0.4999999999999999  0.6875000000000001  1.0000
  O   O4521     1.0  0.4062499999999999  0.5625  0.6875000000000001  1.0000
  O   O4522     1.0  0.4062499999999999  0.625  0.6875000000000001  1.0000
  O   O4523     1.0  0.4062499999999999  0.6875  0.6875000000000001  1.0000
  O   O4524     1.0  0.4062499999999999  0.7500000000000001  0.6875000000000001  1.0000
  O   O4525     1.0  0.4062499999999999  0.8124999999999998  0.6875000000000001  1.0000
  O   O4526     1.0  0.4062499999999999  0.8749999999999998  0.6875000000000001  1.0000
  O   O4527     1.0  0.4062499999999999  0.9374999999999998  0.6875000000000001  1.0000
  O   O4528     1.0  0.4062499999999999  0.0  0.6875000000000001  1.0000
  O   O4529     1.0  0.4374999999999999  0.09374999999999999  0.6562500000000001  1.0000
  O   O4530     1.0  0.4374999999999999  0.15625  0.6562500000000001  1.0000
  O   O4531     1.0  0.4374999999999999  0.21874999999999994  0.6562500000000001  1.0000
  O   O4532     1.0  0.4374999999999999  0.28125  0.6562500000000001  1.0000
  O   O4533     1.0  0.4374999999999999  0.3437499999999999  0.6562500000000001  1.0000
  O   O4534     1.0  0.4374999999999999  0.4062499999999999  0.6562500000000001  1.0000
  O   O4535     1.0  0.4374999999999999  0.4687499999999999  0.6562500000000001  1.0000
  O   O4536     1.0  0.4374999999999999  0.5312499999999999  0.6562500000000001  1.0000
  O   O4537     1.0  0.4374999999999999  0.5937499999999998  0.6562500000000001  1.0000
  O   O4538     1.0  0.4374999999999999  0.65625  0.6562500000000001  1.0000
  O   O4539     1.0  0.4374999999999999  0.7187499999999999  0.6562500000000001  1.0000
  O   O4540     1.0  0.4374999999999999  0.7812499999999999  0.6562500000000001  1.0000
  O   O4541     1.0  0.4374999999999999  0.8437499999999998  0.6562500000000001  1.0000
  O   O4542     1.0  0.4374999999999999  0.9062499999999998  0.6562500000000001  1.0000
  O   O4543     1.0  0.4374999999999999  0.9687499999999998  0.6562500000000001  1.0000
  O   O4544     1.0  0.4374999999999999  0.031249999999999993  0.6562500000000001  1.0000
  O   O4545     1.0  0.46875  0.062499999999999986  0.6249999999999999  1.0000
  O   O4546     1.0  0.46875  0.12499999999999997  0.6249999999999999  1.0000
  O   O4547     1.0  0.46875  0.18749999999999997  0.6249999999999999  1.0000
  O   O4548     1.0  0.46875  0.24999999999999983  0.6249999999999999  1.0000
  O   O4549     1.0  0.46875  0.3125  0.6249999999999999  1.0000
  O   O4550     1.0  0.46875  0.37499999999999994  0.6249999999999999  1.0000
  O   O4551     1.0  0.46875  0.4374999999999999  0.6249999999999999  1.0000
  O   O4552     1.0  0.46875  0.49999999999999983  0.6249999999999999  1.0000
  O   O4553     1.0  0.46875  0.5625  0.6249999999999999  1.0000
  O   O4554     1.0  0.46875  0.6249999999999998  0.6249999999999999  1.0000
  O   O4555     1.0  0.46875  0.6875  0.6249999999999999  1.0000
  O   O4556     1.0  0.46875  0.7500000000000001  0.6249999999999999  1.0000
  O   O4557     1.0  0.46875  0.8124999999999998  0.6249999999999999  1.0000
  O   O4558     1.0  0.46875  0.8749999999999998  0.6249999999999999  1.0000
  O   O4559     1.0  0.46875  0.9374999999999998  0.6249999999999999  1.0000
  O   O4560     1.0  0.46875  0.0  0.6249999999999999  1.0000
  O   O4561     1.0  0.49999999999999994  0.09374999999999999  0.5937499999999998  1.0000
  O   O4562     1.0  0.49999999999999994  0.15625  0.5937499999999998  1.0000
  O   O4563     1.0  0.49999999999999994  0.21874999999999994  0.5937499999999998  1.0000
  O   O4564     1.0  0.49999999999999994  0.28125  0.5937499999999998  1.0000
  O   O4565     1.0  0.49999999999999994  0.3437499999999999  0.5937499999999998  1.0000
  O   O4566     1.0  0.49999999999999994  0.4062499999999999  0.5937499999999998  1.0000
  O   O4567     1.0  0.49999999999999994  0.4687499999999999  0.5937499999999998  1.0000
  O   O4568     1.0  0.49999999999999994  0.5312499999999999  0.5937499999999998  1.0000
  O   O4569     1.0  0.49999999999999994  0.5937499999999998  0.5937499999999998  1.0000
  O   O4570     1.0  0.49999999999999994  0.65625  0.5937499999999998  1.0000
  O   O4571     1.0  0.49999999999999994  0.7187499999999999  0.5937499999999998  1.0000
  O   O4572     1.0  0.49999999999999994  0.7812499999999999  0.5937499999999998  1.0000
  O   O4573     1.0  0.49999999999999994  0.8437500000000001  0.5937499999999998  1.0000
  O   O4574     1.0  0.49999999999999994  0.9062499999999998  0.5937499999999998  1.0000
  O   O4575     1.0  0.49999999999999994  0.9687499999999998  0.5937499999999998  1.0000
  O   O4576     1.0  0.49999999999999994  0.031249999999999993  0.5937499999999998  1.0000
  O   O4577     1.0  0.5312499999999999  0.062499999999999986  0.5625000000000001  1.0000
  O   O4578     1.0  0.5312499999999999  0.12499999999999997  0.5625000000000001  1.0000
  O   O4579     1.0  0.5312499999999999  0.18749999999999997  0.5625000000000001  1.0000
  O   O4580     1.0  0.5312499999999999  0.24999999999999994  0.5625000000000001  1.0000
  O   O4581     1.0  0.5312499999999999  0.3125  0.5625000000000001  1.0000
  O   O4582     1.0  0.5312499999999999  0.37499999999999994  0.5625000000000001  1.0000
  O   O4583     1.0  0.5312499999999999  0.4374999999999999  0.5625000000000001  1.0000
  O   O4584     1.0  0.5312499999999999  0.49999999999999983  0.5625000000000001  1.0000
  O   O4585     1.0  0.5312499999999999  0.5624999999999998  0.5625000000000001  1.0000
  O   O4586     1.0  0.5312499999999999  0.6249999999999998  0.5625000000000001  1.0000
  O   O4587     1.0  0.5312499999999999  0.6875  0.5625000000000001  1.0000
  O   O4588     1.0  0.5312499999999999  0.7499999999999999  0.5625000000000001  1.0000
  O   O4589     1.0  0.5312499999999999  0.8124999999999998  0.5625000000000001  1.0000
  O   O4590     1.0  0.5312499999999999  0.8749999999999998  0.5625000000000001  1.0000
  O   O4591     1.0  0.5312499999999999  0.9374999999999998  0.5625000000000001  1.0000
  O   O4592     1.0  0.5312499999999999  0.0  0.5625000000000001  1.0000
  O   O4593     1.0  0.5624999999999999  0.09374999999999999  0.53125  1.0000
  O   O4594     1.0  0.5624999999999999  0.15625  0.53125  1.0000
  O   O4595     1.0  0.5624999999999999  0.21874999999999994  0.53125  1.0000
  O   O4596     1.0  0.5624999999999999  0.2812499999999999  0.53125  1.0000
  O   O4597     1.0  0.5624999999999999  0.3437499999999999  0.53125  1.0000
  O   O4598     1.0  0.5624999999999999  0.4062499999999999  0.53125  1.0000
  O   O4599     1.0  0.5624999999999999  0.4687499999999999  0.53125  1.0000
  O   O4600     1.0  0.5624999999999999  0.53125  0.53125  1.0000
  O   O4601     1.0  0.5624999999999999  0.59375  0.53125  1.0000
  O   O4602     1.0  0.5624999999999999  0.65625  0.53125  1.0000
  O   O4603     1.0  0.5624999999999999  0.7187499999999999  0.53125  1.0000
  O   O4604     1.0  0.5624999999999999  0.7812499999999999  0.53125  1.0000
  O   O4605     1.0  0.5624999999999999  0.8437500000000001  0.53125  1.0000
  O   O4606     1.0  0.5624999999999999  0.9062499999999998  0.53125  1.0000
  O   O4607     1.0  0.5624999999999999  0.9687499999999998  0.53125  1.0000
  O   O4608     1.0  0.5624999999999999  0.031249999999999993  0.53125  1.0000
  O   O4609     1.0  0.59375  0.062499999999999986  0.5  1.0000
  O   O4610     1.0  0.59375  0.12499999999999997  0.5  1.0000
  O   O4611     1.0  0.59375  0.18749999999999997  0.5  1.0000
  O   O4612     1.0  0.59375  0.24999999999999994  0.5  1.0000
  O   O4613     1.0  0.59375  0.3125  0.5  1.0000
  O   O4614     1.0  0.59375  0.37499999999999994  0.5  1.0000
  O   O4615     1.0  0.59375  0.4374999999999999  0.5  1.0000
  O   O4616     1.0  0.59375  0.49999999999999983  0.5  1.0000
  O   O4617     1.0  0.59375  0.5624999999999998  0.5  1.0000
  O   O4618     1.0  0.59375  0.6249999999999998  0.5  1.0000
  O   O4619     1.0  0.59375  0.6875  0.5  1.0000
  O   O4620     1.0  0.59375  0.7499999999999999  0.5  1.0000
  O   O4621     1.0  0.59375  0.8124999999999998  0.5  1.0000
  O   O4622     1.0  0.59375  0.8749999999999998  0.5  1.0000
  O   O4623     1.0  0.59375  0.9374999999999998  0.5  1.0000
  O   O4624     1.0  0.59375  0.0  0.5  1.0000
  O   O4625     1.0  0.6250000000000002  0.09374999999999999  0.4687499999999999  1.0000
  O   O4626     1.0  0.6250000000000002  0.15625  0.4687499999999999  1.0000
  O   O4627     1.0  0.6250000000000002  0.21874999999999994  0.4687499999999999  1.0000
  O   O4628     1.0  0.6250000000000002  0.2812499999999999  0.4687499999999999  1.0000
  O   O4629     1.0  0.6250000000000002  0.3437499999999999  0.4687499999999999  1.0000
  O   O4630     1.0  0.6250000000000002  0.4062499999999999  0.4687499999999999  1.0000
  O   O4631     1.0  0.6250000000000002  0.4687499999999999  0.4687499999999999  1.0000
  O   O4632     1.0  0.6250000000000002  0.53125  0.4687499999999999  1.0000
  O   O4633     1.0  0.6250000000000002  0.59375  0.4687499999999999  1.0000
  O   O4634     1.0  0.6250000000000002  0.6562499999999998  0.4687499999999999  1.0000
  O   O4635     1.0  0.6250000000000002  0.7187499999999999  0.4687499999999999  1.0000
  O   O4636     1.0  0.6250000000000002  0.7812499999999999  0.4687499999999999  1.0000
  O   O4637     1.0  0.6250000000000002  0.8437499999999998  0.4687499999999999  1.0000
  O   O4638     1.0  0.6250000000000002  0.9062499999999998  0.4687499999999999  1.0000
  O   O4639     1.0  0.6250000000000002  0.9687499999999998  0.4687499999999999  1.0000
  O   O4640     1.0  0.6250000000000002  0.031249999999999993  0.4687499999999999  1.0000
  O   O4641     1.0  0.65625  0.062499999999999986  0.4375000000000001  1.0000
  O   O4642     1.0  0.65625  0.12499999999999997  0.4375000000000001  1.0000
  O   O4643     1.0  0.65625  0.18749999999999997  0.4375000000000001  1.0000
  O   O4644     1.0  0.65625  0.24999999999999994  0.4375000000000001  1.0000
  O   O4645     1.0  0.65625  0.3125  0.4375000000000001  1.0000
  O   O4646     1.0  0.65625  0.3749999999999999  0.4375000000000001  1.0000
  O   O4647     1.0  0.65625  0.4374999999999999  0.4375000000000001  1.0000
  O   O4648     1.0  0.65625  0.49999999999999983  0.4375000000000001  1.0000
  O   O4649     1.0  0.65625  0.5624999999999998  0.4375000000000001  1.0000
  O   O4650     1.0  0.65625  0.6249999999999998  0.4375000000000001  1.0000
  O   O4651     1.0  0.65625  0.6875  0.4375000000000001  1.0000
  O   O4652     1.0  0.65625  0.7499999999999999  0.4375000000000001  1.0000
  O   O4653     1.0  0.65625  0.8124999999999998  0.4375000000000001  1.0000
  O   O4654     1.0  0.65625  0.8749999999999998  0.4375000000000001  1.0000
  O   O4655     1.0  0.65625  0.9374999999999998  0.4375000000000001  1.0000
  O   O4656     1.0  0.65625  0.0  0.4375000000000001  1.0000
  O   O4657     1.0  0.6875000000000002  0.09374999999999999  0.40625000000000017  1.0000
  O   O4658     1.0  0.6875000000000002  0.15625  0.40625000000000017  1.0000
  O   O4659     1.0  0.6875000000000002  0.21874999999999994  0.40625000000000017  1.0000
  O   O4660     1.0  0.6875000000000002  0.2812499999999999  0.40625000000000017  1.0000
  O   O4661     1.0  0.6875000000000002  0.34375  0.40625000000000017  1.0000
  O   O4662     1.0  0.6875000000000002  0.4062499999999999  0.40625000000000017  1.0000
  O   O4663     1.0  0.6875000000000002  0.4687499999999999  0.40625000000000017  1.0000
  O   O4664     1.0  0.6875000000000002  0.53125  0.40625000000000017  1.0000
  O   O4665     1.0  0.6875000000000002  0.59375  0.40625000000000017  1.0000
  O   O4666     1.0  0.6875000000000002  0.6562499999999998  0.40625000000000017  1.0000
  O   O4667     1.0  0.6875000000000002  0.7187499999999999  0.40625000000000017  1.0000
  O   O4668     1.0  0.6875000000000002  0.7812499999999999  0.40625000000000017  1.0000
  O   O4669     1.0  0.6875000000000002  0.8437499999999998  0.40625000000000017  1.0000
  O   O4670     1.0  0.6875000000000002  0.9062499999999998  0.40625000000000017  1.0000
  O   O4671     1.0  0.6875000000000002  0.9687499999999998  0.40625000000000017  1.0000
  O   O4672     1.0  0.6875000000000002  0.031249999999999993  0.40625000000000017  1.0000
  O   O4673     1.0  0.71875  0.062499999999999986  0.37499999999999994  1.0000
  O   O4674     1.0  0.71875  0.12499999999999997  0.37499999999999994  1.0000
  O   O4675     1.0  0.71875  0.18749999999999997  0.37499999999999994  1.0000
  O   O4676     1.0  0.71875  0.24999999999999994  0.37499999999999994  1.0000
  O   O4677     1.0  0.71875  0.3124999999999999  0.37499999999999994  1.0000
  O   O4678     1.0  0.71875  0.3749999999999999  0.37499999999999994  1.0000
  O   O4679     1.0  0.71875  0.4374999999999999  0.37499999999999994  1.0000
  O   O4680     1.0  0.71875  0.49999999999999983  0.37499999999999994  1.0000
  O   O4681     1.0  0.71875  0.5624999999999998  0.37499999999999994  1.0000
  O   O4682     1.0  0.71875  0.625  0.37499999999999994  1.0000
  O   O4683     1.0  0.71875  0.6875  0.37499999999999994  1.0000
  O   O4684     1.0  0.71875  0.7499999999999999  0.37499999999999994  1.0000
  O   O4685     1.0  0.71875  0.8124999999999998  0.37499999999999994  1.0000
  O   O4686     1.0  0.71875  0.8749999999999998  0.37499999999999994  1.0000
  O   O4687     1.0  0.71875  0.9374999999999998  0.37499999999999994  1.0000
  O   O4688     1.0  0.71875  0.0  0.37499999999999994  1.0000
  O   O4689     1.0  0.75  0.09374999999999999  0.34375000000000006  1.0000
  O   O4690     1.0  0.75  0.15625  0.34375000000000006  1.0000
  O   O4691     1.0  0.75  0.21874999999999994  0.34375000000000006  1.0000
  O   O4692     1.0  0.75  0.28125  0.34375000000000006  1.0000
  O   O4693     1.0  0.75  0.34375  0.34375000000000006  1.0000
  O   O4694     1.0  0.75  0.4062499999999999  0.34375000000000006  1.0000
  O   O4695     1.0  0.75  0.4687499999999999  0.34375000000000006  1.0000
  O   O4696     1.0  0.75  0.53125  0.34375000000000006  1.0000
  O   O4697     1.0  0.75  0.5937499999999998  0.34375000000000006  1.0000
  O   O4698     1.0  0.75  0.6562499999999998  0.34375000000000006  1.0000
  O   O4699     1.0  0.75  0.7187499999999999  0.34375000000000006  1.0000
  O   O4700     1.0  0.75  0.7812499999999999  0.34375000000000006  1.0000
  O   O4701     1.0  0.75  0.8437499999999998  0.34375000000000006  1.0000
  O   O4702     1.0  0.75  0.9062499999999998  0.34375000000000006  1.0000
  O   O4703     1.0  0.75  0.9687499999999998  0.34375000000000006  1.0000
  O   O4704     1.0  0.75  0.031249999999999993  0.34375000000000006  1.0000
  O   O4705     1.0  0.7812499999999999  0.062499999999999986  0.31250000000000006  1.0000
  O   O4706     1.0  0.7812499999999999  0.12499999999999997  0.31250000000000006  1.0000
  O   O4707     1.0  0.7812499999999999  0.18749999999999997  0.31250000000000006  1.0000
  O   O4708     1.0  0.7812499999999999  0.24999999999999994  0.31250000000000006  1.0000
  O   O4709     1.0  0.7812499999999999  0.3124999999999999  0.31250000000000006  1.0000
  O   O4710     1.0  0.7812499999999999  0.3749999999999999  0.31250000000000006  1.0000
  O   O4711     1.0  0.7812499999999999  0.4374999999999999  0.31250000000000006  1.0000
  O   O4712     1.0  0.7812499999999999  0.49999999999999983  0.31250000000000006  1.0000
  O   O4713     1.0  0.7812499999999999  0.5624999999999998  0.31250000000000006  1.0000
  O   O4714     1.0  0.7812499999999999  0.625  0.31250000000000006  1.0000
  O   O4715     1.0  0.7812499999999999  0.6875  0.31250000000000006  1.0000
  O   O4716     1.0  0.7812499999999999  0.7499999999999999  0.31250000000000006  1.0000
  O   O4717     1.0  0.7812499999999999  0.8125000000000001  0.31250000000000006  1.0000
  O   O4718     1.0  0.7812499999999999  0.8749999999999998  0.31250000000000006  1.0000
  O   O4719     1.0  0.7812499999999999  0.9374999999999998  0.31250000000000006  1.0000
  O   O4720     1.0  0.7812499999999999  0.0  0.31250000000000006  1.0000
  O   O4721     1.0  0.8124999999999999  0.09374999999999999  0.2812499999999999  1.0000
  O   O4722     1.0  0.8124999999999999  0.15625  0.2812499999999999  1.0000
  O   O4723     1.0  0.8124999999999999  0.21874999999999994  0.2812499999999999  1.0000
  O   O4724     1.0  0.8124999999999999  0.28125  0.2812499999999999  1.0000
  O   O4725     1.0  0.8124999999999999  0.34375  0.2812499999999999  1.0000
  O   O4726     1.0  0.8124999999999999  0.4062499999999999  0.2812499999999999  1.0000
  O   O4727     1.0  0.8124999999999999  0.4687499999999999  0.2812499999999999  1.0000
  O   O4728     1.0  0.8124999999999999  0.5312499999999999  0.2812499999999999  1.0000
  O   O4729     1.0  0.8124999999999999  0.5937499999999998  0.2812499999999999  1.0000
  O   O4730     1.0  0.8124999999999999  0.6562499999999998  0.2812499999999999  1.0000
  O   O4731     1.0  0.8124999999999999  0.7187499999999999  0.2812499999999999  1.0000
  O   O4732     1.0  0.8124999999999999  0.7812499999999999  0.2812499999999999  1.0000
  O   O4733     1.0  0.8124999999999999  0.8437499999999998  0.2812499999999999  1.0000
  O   O4734     1.0  0.8124999999999999  0.9062499999999998  0.2812499999999999  1.0000
  O   O4735     1.0  0.8124999999999999  0.9687499999999998  0.2812499999999999  1.0000
  O   O4736     1.0  0.8124999999999999  0.031249999999999993  0.2812499999999999  1.0000
  O   O4737     1.0  0.8437500000000001  0.062499999999999986  0.25  1.0000
  O   O4738     1.0  0.8437500000000001  0.12499999999999997  0.25  1.0000
  O   O4739     1.0  0.8437500000000001  0.18749999999999997  0.25  1.0000
  O   O4740     1.0  0.8437500000000001  0.24999999999999994  0.25  1.0000
  O   O4741     1.0  0.8437500000000001  0.3124999999999999  0.25  1.0000
  O   O4742     1.0  0.8437500000000001  0.3749999999999999  0.25  1.0000
  O   O4743     1.0  0.8437500000000001  0.4374999999999999  0.25  1.0000
  O   O4744     1.0  0.8437500000000001  0.4999999999999999  0.25  1.0000
  O   O4745     1.0  0.8437500000000001  0.5625  0.25  1.0000
  O   O4746     1.0  0.8437500000000001  0.625  0.25  1.0000
  O   O4747     1.0  0.8437500000000001  0.6874999999999998  0.25  1.0000
  O   O4748     1.0  0.8437500000000001  0.7499999999999999  0.25  1.0000
  O   O4749     1.0  0.8437500000000001  0.8125000000000001  0.25  1.0000
  O   O4750     1.0  0.8437500000000001  0.8749999999999998  0.25  1.0000
  O   O4751     1.0  0.8437500000000001  0.9374999999999998  0.25  1.0000
  O   O4752     1.0  0.8437500000000001  0.9999999999999999  0.25  1.0000
  O   O4753     1.0  0.8749999999999999  0.09374999999999999  0.21875000000000006  1.0000
  O   O4754     1.0  0.8749999999999999  0.15625  0.21875000000000006  1.0000
  O   O4755     1.0  0.8749999999999999  0.21874999999999994  0.21875000000000006  1.0000
  O   O4756     1.0  0.8749999999999999  0.28125  0.21875000000000006  1.0000
  O   O4757     1.0  0.8749999999999999  0.34375  0.21875000000000006  1.0000
  O   O4758     1.0  0.8749999999999999  0.4062499999999999  0.21875000000000006  1.0000
  O   O4759     1.0  0.8749999999999999  0.4687499999999999  0.21875000000000006  1.0000
  O   O4760     1.0  0.8749999999999999  0.5312499999999999  0.21875000000000006  1.0000
  O   O4761     1.0  0.8749999999999999  0.5937499999999998  0.21875000000000006  1.0000
  O   O4762     1.0  0.8749999999999999  0.6562499999999998  0.21875000000000006  1.0000
  O   O4763     1.0  0.8749999999999999  0.7187499999999999  0.21875000000000006  1.0000
  O   O4764     1.0  0.8749999999999999  0.7812499999999999  0.21875000000000006  1.0000
  O   O4765     1.0  0.8749999999999999  0.8437499999999998  0.21875000000000006  1.0000
  O   O4766     1.0  0.8749999999999999  0.9062499999999998  0.21875000000000006  1.0000
  O   O4767     1.0  0.8749999999999999  0.9687499999999998  0.21875000000000006  1.0000
  O   O4768     1.0  0.8749999999999999  0.031249999999999993  0.21875000000000006  1.0000
  O   O4769     1.0  0.9062500000000002  0.062499999999999986  0.1874999999999997  1.0000
  O   O4770     1.0  0.9062500000000002  0.12499999999999997  0.1874999999999997  1.0000
  O   O4771     1.0  0.9062500000000002  0.18749999999999997  0.1874999999999997  1.0000
  O   O4772     1.0  0.9062500000000002  0.24999999999999983  0.1874999999999997  1.0000
  O   O4773     1.0  0.9062500000000002  0.3124999999999999  0.1874999999999997  1.0000
  O   O4774     1.0  0.9062500000000002  0.37499999999999994  0.1874999999999997  1.0000
  O   O4775     1.0  0.9062500000000002  0.4374999999999999  0.1874999999999997  1.0000
  O   O4776     1.0  0.9062500000000002  0.4999999999999999  0.1874999999999997  1.0000
  O   O4777     1.0  0.9062500000000002  0.5625  0.1874999999999997  1.0000
  O   O4778     1.0  0.9062500000000002  0.625  0.1874999999999997  1.0000
  O   O4779     1.0  0.9062500000000002  0.6874999999999998  0.1874999999999997  1.0000
  O   O4780     1.0  0.9062500000000002  0.7499999999999999  0.1874999999999997  1.0000
  O   O4781     1.0  0.9062500000000002  0.8124999999999998  0.1874999999999997  1.0000
  O   O4782     1.0  0.9062500000000002  0.8749999999999998  0.1874999999999997  1.0000
  O   O4783     1.0  0.9062500000000002  0.9374999999999998  0.1874999999999997  1.0000
  O   O4784     1.0  0.9062500000000002  0.9999999999999999  0.1874999999999997  1.0000
  O   O4785     1.0  0.9375  0.09374999999999999  0.1562499999999997  1.0000
  O   O4786     1.0  0.9375  0.15625  0.1562499999999997  1.0000
  O   O4787     1.0  0.9375  0.21874999999999994  0.1562499999999997  1.0000
  O   O4788     1.0  0.9375  0.28125  0.1562499999999997  1.0000
  O   O4789     1.0  0.9375  0.3437499999999999  0.1562499999999997  1.0000
  O   O4790     1.0  0.9375  0.4062499999999999  0.1562499999999997  1.0000
  O   O4791     1.0  0.9375  0.4687499999999999  0.1562499999999997  1.0000
  O   O4792     1.0  0.9375  0.5312499999999999  0.1562499999999997  1.0000
  O   O4793     1.0  0.9375  0.5937499999999998  0.1562499999999997  1.0000
  O   O4794     1.0  0.9375  0.6562499999999998  0.1562499999999997  1.0000
  O   O4795     1.0  0.9375  0.7187499999999999  0.1562499999999997  1.0000
  O   O4796     1.0  0.9375  0.7812499999999999  0.1562499999999997  1.0000
  O   O4797     1.0  0.9375  0.8437499999999998  0.1562499999999997  1.0000
  O   O4798     1.0  0.9375  0.9062499999999998  0.1562499999999997  1.0000
  O   O4799     1.0  0.9375  0.9687499999999998  0.1562499999999997  1.0000
  O   O4800     1.0  0.9375  0.031249999999999993  0.1562499999999997  1.0000
  O   O4801     1.0  0.9687500000000002  0.062499999999999986  0.12499999999999993  1.0000
  O   O4802     1.0  0.9687500000000002  0.12499999999999997  0.12499999999999993  1.0000
  O   O4803     1.0  0.9687500000000002  0.18749999999999997  0.12499999999999993  1.0000
  O   O4804     1.0  0.9687500000000002  0.24999999999999983  0.12499999999999993  1.0000
  O   O4805     1.0  0.9687500000000002  0.3125  0.12499999999999993  1.0000
  O   O4806     1.0  0.9687500000000002  0.37499999999999994  0.12499999999999993  1.0000
  O   O4807     1.0  0.9687500000000002  0.4374999999999999  0.12499999999999993  1.0000
  O   O4808     1.0  0.9687500000000002  0.49999999999999983  0.12499999999999993  1.0000
  O   O4809     1.0  0.9687500000000002  0.5625  0.12499999999999993  1.0000
  O   O4810     1.0  0.9687500000000002  0.6249999999999998  0.12499999999999993  1.0000
  O   O4811     1.0  0.9687500000000002  0.6874999999999998  0.12499999999999993  1.0000
  O   O4812     1.0  0.9687500000000002  0.7499999999999999  0.12499999999999993  1.0000
  O   O4813     1.0  0.9687500000000002  0.8124999999999998  0.12499999999999993  1.0000
  O   O4814     1.0  0.9687500000000002  0.8749999999999998  0.12499999999999993  1.0000
  O   O4815     1.0  0.9687500000000002  0.9374999999999998  0.12499999999999993  1.0000
  O   O4816     1.0  0.9687500000000002  0.9999999999999999  0.12499999999999993  1.0000
  O   O4817     1.0  0.0  0.09374999999999999  0.09374999999999983  1.0000
  O   O4818     1.0  0.0  0.15625  0.09374999999999983  1.0000
  O   O4819     1.0  0.0  0.21874999999999994  0.09374999999999983  1.0000
  O   O4820     1.0  0.0  0.28125  0.09374999999999983  1.0000
  O   O4821     1.0  0.0  0.3437499999999999  0.09374999999999983  1.0000
  O   O4822     1.0  0.0  0.4062499999999999  0.09374999999999983  1.0000
  O   O4823     1.0  0.0  0.4687499999999999  0.09374999999999983  1.0000
  O   O4824     1.0  0.0  0.5312499999999999  0.09374999999999983  1.0000
  O   O4825     1.0  0.0  0.59375  0.09374999999999983  1.0000
  O   O4826     1.0  0.0  0.65625  0.09374999999999983  1.0000
  O   O4827     1.0  0.0  0.7187499999999999  0.09374999999999983  1.0000
  O   O4828     1.0  0.0  0.7812499999999999  0.09374999999999983  1.0000
  O   O4829     1.0  0.0  0.8437499999999998  0.09374999999999983  1.0000
  O   O4830     1.0  0.0  0.9062499999999998  0.09374999999999983  1.0000
  O   O4831     1.0  0.0  0.9687499999999998  0.09374999999999983  1.0000
  O   O4832     1.0  0.0  0.031249999999999993  0.09374999999999983  1.0000
  O   O4833     1.0  0.15625000000000006  0.062499999999999986  0.0  1.0000
  O   O4834     1.0  0.15625000000000006  0.12499999999999997  0.0  1.0000
  O   O4835     1.0  0.15625000000000006  0.18749999999999997  0.0  1.0000
  O   O4836     1.0  0.15625000000000006  0.24999999999999994  0.0  1.0000
  O   O4837     1.0  0.15625000000000006  0.3125  0.0  1.0000
  O   O4838     1.0  0.15625000000000006  0.3749999999999999  0.0  1.0000
  O   O4839     1.0  0.15625000000000006  0.4374999999999999  0.0  1.0000
  O   O4840     1.0  0.15625000000000006  0.49999999999999983  0.0  1.0000
  O   O4841     1.0  0.15625000000000006  0.5624999999999998  0.0  1.0000
  O   O4842     1.0  0.15625000000000006  0.6249999999999998  0.0  1.0000
  O   O4843     1.0  0.15625000000000006  0.6875  0.0  1.0000
  O   O4844     1.0  0.15625000000000006  0.7499999999999999  0.0  1.0000
  O   O4845     1.0  0.15625000000000006  0.8124999999999998  0.0  1.0000
  O   O4846     1.0  0.15625000000000006  0.8749999999999998  0.0  1.0000
  O   O4847     1.0  0.15625000000000006  0.9374999999999998  0.0  1.0000
  O   O4848     1.0  0.15625000000000006  0.0  0.0  1.0000
  O   O4849     1.0  0.1875  0.09374999999999999  0.9687500000000001  1.0000
  O   O4850     1.0  0.1875  0.15625  0.9687500000000001  1.0000
  O   O4851     1.0  0.1875  0.21874999999999994  0.9687500000000001  1.0000
  O   O4852     1.0  0.1875  0.2812499999999999  0.9687500000000001  1.0000
  O   O4853     1.0  0.1875  0.34375  0.9687500000000001  1.0000
  O   O4854     1.0  0.1875  0.4062499999999999  0.9687500000000001  1.0000
  O   O4855     1.0  0.1875  0.4687499999999999  0.9687500000000001  1.0000
  O   O4856     1.0  0.1875  0.53125  0.9687500000000001  1.0000
  O   O4857     1.0  0.1875  0.59375  0.9687500000000001  1.0000
  O   O4858     1.0  0.1875  0.6562499999999998  0.9687500000000001  1.0000
  O   O4859     1.0  0.1875  0.7187499999999999  0.9687500000000001  1.0000
  O   O4860     1.0  0.1875  0.7812499999999999  0.9687500000000001  1.0000
  O   O4861     1.0  0.1875  0.8437499999999998  0.9687500000000001  1.0000
  O   O4862     1.0  0.1875  0.9062499999999998  0.9687500000000001  1.0000
  O   O4863     1.0  0.1875  0.9687499999999998  0.9687500000000001  1.0000
  O   O4864     1.0  0.1875  0.031249999999999993  0.9687500000000001  1.0000
  O   O4865     1.0  0.21875  0.062499999999999986  0.9375000000000001  1.0000
  O   O4866     1.0  0.21875  0.12499999999999997  0.9375000000000001  1.0000
  O   O4867     1.0  0.21875  0.18749999999999997  0.9375000000000001  1.0000
  O   O4868     1.0  0.21875  0.24999999999999994  0.9375000000000001  1.0000
  O   O4869     1.0  0.21875  0.3124999999999999  0.9375000000000001  1.0000
  O   O4870     1.0  0.21875  0.3749999999999999  0.9375000000000001  1.0000
  O   O4871     1.0  0.21875  0.4374999999999999  0.9375000000000001  1.0000
  O   O4872     1.0  0.21875  0.49999999999999983  0.9375000000000001  1.0000
  O   O4873     1.0  0.21875  0.5624999999999998  0.9375000000000001  1.0000
  O   O4874     1.0  0.21875  0.6249999999999998  0.9375000000000001  1.0000
  O   O4875     1.0  0.21875  0.6875  0.9375000000000001  1.0000
  O   O4876     1.0  0.21875  0.7499999999999999  0.9375000000000001  1.0000
  O   O4877     1.0  0.21875  0.8124999999999998  0.9375000000000001  1.0000
  O   O4878     1.0  0.21875  0.8750000000000001  0.9375000000000001  1.0000
  O   O4879     1.0  0.21875  0.9374999999999998  0.9375000000000001  1.0000
  O   O4880     1.0  0.21875  0.0  0.9375000000000001  1.0000
  O   O4881     1.0  0.25  0.09374999999999999  0.9062500000000001  1.0000
  O   O4882     1.0  0.25  0.15625  0.9062500000000001  1.0000
  O   O4883     1.0  0.25  0.21874999999999994  0.9062500000000001  1.0000
  O   O4884     1.0  0.25  0.28125  0.9062500000000001  1.0000
  O   O4885     1.0  0.25  0.34375  0.9062500000000001  1.0000
  O   O4886     1.0  0.25  0.4062499999999999  0.9062500000000001  1.0000
  O   O4887     1.0  0.25  0.4687499999999999  0.9062500000000001  1.0000
  O   O4888     1.0  0.25  0.53125  0.9062500000000001  1.0000
  O   O4889     1.0  0.25  0.5937499999999998  0.9062500000000001  1.0000
  O   O4890     1.0  0.25  0.6562499999999998  0.9062500000000001  1.0000
  O   O4891     1.0  0.25  0.7187499999999999  0.9062500000000001  1.0000
  O   O4892     1.0  0.25  0.7812499999999999  0.9062500000000001  1.0000
  O   O4893     1.0  0.25  0.8437499999999998  0.9062500000000001  1.0000
  O   O4894     1.0  0.25  0.9062499999999998  0.9062500000000001  1.0000
  O   O4895     1.0  0.25  0.9687499999999998  0.9062500000000001  1.0000
  O   O4896     1.0  0.25  0.031249999999999993  0.9062500000000001  1.0000
  O   O4897     1.0  0.2812499999999999  0.062499999999999986  0.875  1.0000
  O   O4898     1.0  0.2812499999999999  0.12499999999999997  0.875  1.0000
  O   O4899     1.0  0.2812499999999999  0.18749999999999997  0.875  1.0000
  O   O4900     1.0  0.2812499999999999  0.24999999999999994  0.875  1.0000
  O   O4901     1.0  0.2812499999999999  0.3124999999999999  0.875  1.0000
  O   O4902     1.0  0.2812499999999999  0.3749999999999999  0.875  1.0000
  O   O4903     1.0  0.2812499999999999  0.4374999999999999  0.875  1.0000
  O   O4904     1.0  0.2812499999999999  0.49999999999999983  0.875  1.0000
  O   O4905     1.0  0.2812499999999999  0.5625  0.875  1.0000
  O   O4906     1.0  0.2812499999999999  0.625  0.875  1.0000
  O   O4907     1.0  0.2812499999999999  0.6875  0.875  1.0000
  O   O4908     1.0  0.2812499999999999  0.7499999999999999  0.875  1.0000
  O   O4909     1.0  0.2812499999999999  0.8124999999999998  0.875  1.0000
  O   O4910     1.0  0.2812499999999999  0.8750000000000001  0.875  1.0000
  O   O4911     1.0  0.2812499999999999  0.9374999999999998  0.875  1.0000
  O   O4912     1.0  0.2812499999999999  0.0  0.875  1.0000
  O   O4913     1.0  0.3125  0.09374999999999999  0.84375  1.0000
  O   O4914     1.0  0.3125  0.15625  0.84375  1.0000
  O   O4915     1.0  0.3125  0.21874999999999994  0.84375  1.0000
  O   O4916     1.0  0.3125  0.28125  0.84375  1.0000
  O   O4917     1.0  0.3125  0.34375  0.84375  1.0000
  O   O4918     1.0  0.3125  0.4062499999999999  0.84375  1.0000
  O   O4919     1.0  0.3125  0.4687499999999999  0.84375  1.0000
  O   O4920     1.0  0.3125  0.5312499999999999  0.84375  1.0000
  O   O4921     1.0  0.3125  0.5937499999999998  0.84375  1.0000
  O   O4922     1.0  0.3125  0.6562499999999998  0.84375  1.0000
  O   O4923     1.0  0.3125  0.7187499999999999  0.84375  1.0000
  O   O4924     1.0  0.3125  0.7812499999999999  0.84375  1.0000
  O   O4925     1.0  0.3125  0.8437499999999998  0.84375  1.0000
  O   O4926     1.0  0.3125  0.9062499999999998  0.84375  1.0000
  O   O4927     1.0  0.3125  0.9687499999999998  0.84375  1.0000
  O   O4928     1.0  0.3125  0.031249999999999993  0.84375  1.0000
  O   O4929     1.0  0.34375  0.062499999999999986  0.8125  1.0000
  O   O4930     1.0  0.34375  0.12499999999999997  0.8125  1.0000
  O   O4931     1.0  0.34375  0.18749999999999997  0.8125  1.0000
  O   O4932     1.0  0.34375  0.24999999999999994  0.8125  1.0000
  O   O4933     1.0  0.34375  0.3124999999999999  0.8125  1.0000
  O   O4934     1.0  0.34375  0.3749999999999999  0.8125  1.0000
  O   O4935     1.0  0.34375  0.4374999999999999  0.8125  1.0000
  O   O4936     1.0  0.34375  0.49999999999999983  0.8125  1.0000
  O   O4937     1.0  0.34375  0.5625  0.8125  1.0000
  O   O4938     1.0  0.34375  0.625  0.8125  1.0000
  O   O4939     1.0  0.34375  0.6875  0.8125  1.0000
  O   O4940     1.0  0.34375  0.7499999999999999  0.8125  1.0000
  O   O4941     1.0  0.34375  0.8124999999999998  0.8125  1.0000
  O   O4942     1.0  0.34375  0.8749999999999998  0.8125  1.0000
  O   O4943     1.0  0.34375  0.9374999999999998  0.8125  1.0000
  O   O4944     1.0  0.34375  0.0  0.8125  1.0000
  O   O4945     1.0  0.375  0.09374999999999999  0.78125  1.0000
  O   O4946     1.0  0.375  0.15625  0.78125  1.0000
  O   O4947     1.0  0.375  0.21874999999999994  0.78125  1.0000
  O   O4948     1.0  0.375  0.28125  0.78125  1.0000
  O   O4949     1.0  0.375  0.34375  0.78125  1.0000
  O   O4950     1.0  0.375  0.4062499999999999  0.78125  1.0000
  O   O4951     1.0  0.375  0.4687499999999999  0.78125  1.0000
  O   O4952     1.0  0.375  0.5312499999999999  0.78125  1.0000
  O   O4953     1.0  0.375  0.5937499999999998  0.78125  1.0000
  O   O4954     1.0  0.375  0.6562499999999998  0.78125  1.0000
  O   O4955     1.0  0.375  0.7187499999999999  0.78125  1.0000
  O   O4956     1.0  0.375  0.7812499999999999  0.78125  1.0000
  O   O4957     1.0  0.375  0.8437499999999998  0.78125  1.0000
  O   O4958     1.0  0.375  0.9062499999999998  0.78125  1.0000
  O   O4959     1.0  0.375  0.9687499999999998  0.78125  1.0000
  O   O4960     1.0  0.375  0.031249999999999993  0.78125  1.0000
  O   O4961     1.0  0.4062499999999999  0.062499999999999986  0.75  1.0000
  O   O4962     1.0  0.4062499999999999  0.12499999999999997  0.75  1.0000
  O   O4963     1.0  0.4062499999999999  0.18749999999999997  0.75  1.0000
  O   O4964     1.0  0.4062499999999999  0.24999999999999983  0.75  1.0000
  O   O4965     1.0  0.4062499999999999  0.3124999999999999  0.75  1.0000
  O   O4966     1.0  0.4062499999999999  0.37499999999999994  0.75  1.0000
  O   O4967     1.0  0.4062499999999999  0.4374999999999999  0.75  1.0000
  O   O4968     1.0  0.4062499999999999  0.4999999999999999  0.75  1.0000
  O   O4969     1.0  0.4062499999999999  0.5625  0.75  1.0000
  O   O4970     1.0  0.4062499999999999  0.625  0.75  1.0000
  O   O4971     1.0  0.4062499999999999  0.6875  0.75  1.0000
  O   O4972     1.0  0.4062499999999999  0.7500000000000001  0.75  1.0000
  O   O4973     1.0  0.4062499999999999  0.8124999999999998  0.75  1.0000
  O   O4974     1.0  0.4062499999999999  0.8749999999999998  0.75  1.0000
  O   O4975     1.0  0.4062499999999999  0.9374999999999998  0.75  1.0000
  O   O4976     1.0  0.4062499999999999  0.0  0.75  1.0000
  O   O4977     1.0  0.4374999999999999  0.09374999999999999  0.71875  1.0000
  O   O4978     1.0  0.4374999999999999  0.15625  0.71875  1.0000
  O   O4979     1.0  0.4374999999999999  0.21874999999999994  0.71875  1.0000
  O   O4980     1.0  0.4374999999999999  0.28125  0.71875  1.0000
  O   O4981     1.0  0.4374999999999999  0.3437499999999999  0.71875  1.0000
  O   O4982     1.0  0.4374999999999999  0.4062499999999999  0.71875  1.0000
  O   O4983     1.0  0.4374999999999999  0.4687499999999999  0.71875  1.0000
  O   O4984     1.0  0.4374999999999999  0.5312499999999999  0.71875  1.0000
  O   O4985     1.0  0.4374999999999999  0.5937499999999998  0.71875  1.0000
  O   O4986     1.0  0.4374999999999999  0.65625  0.71875  1.0000
  O   O4987     1.0  0.4374999999999999  0.7187499999999999  0.71875  1.0000
  O   O4988     1.0  0.4374999999999999  0.7812499999999999  0.71875  1.0000
  O   O4989     1.0  0.4374999999999999  0.8437499999999998  0.71875  1.0000
  O   O4990     1.0  0.4374999999999999  0.9062499999999998  0.71875  1.0000
  O   O4991     1.0  0.4374999999999999  0.9687499999999998  0.71875  1.0000
  O   O4992     1.0  0.4374999999999999  0.031249999999999993  0.71875  1.0000
  O   O4993     1.0  0.4687499999999999  0.062499999999999986  0.6875000000000001  1.0000
  O   O4994     1.0  0.4687499999999999  0.12499999999999997  0.6875000000000001  1.0000
  O   O4995     1.0  0.4687499999999999  0.18749999999999997  0.6875000000000001  1.0000
  O   O4996     1.0  0.4687499999999999  0.24999999999999983  0.6875000000000001  1.0000
  O   O4997     1.0  0.4687499999999999  0.3125  0.6875000000000001  1.0000
  O   O4998     1.0  0.4687499999999999  0.37499999999999994  0.6875000000000001  1.0000
  O   O4999     1.0  0.4687499999999999  0.4374999999999999  0.6875000000000001  1.0000
  O   O5000     1.0  0.4687499999999999  0.49999999999999983  0.6875000000000001  1.0000
  O   O5001     1.0  0.4687499999999999  0.5625  0.6875000000000001  1.0000
  O   O5002     1.0  0.4687499999999999  0.6249999999999998  0.6875000000000001  1.0000
  O   O5003     1.0  0.4687499999999999  0.6875  0.6875000000000001  1.0000
  O   O5004     1.0  0.4687499999999999  0.7500000000000001  0.6875000000000001  1.0000
  O   O5005     1.0  0.4687499999999999  0.8124999999999998  0.6875000000000001  1.0000
  O   O5006     1.0  0.4687499999999999  0.8749999999999998  0.6875000000000001  1.0000
  O   O5007     1.0  0.4687499999999999  0.9374999999999998  0.6875000000000001  1.0000
  O   O5008     1.0  0.4687499999999999  0.0  0.6875000000000001  1.0000
  O   O5009     1.0  0.49999999999999994  0.09374999999999999  0.6562499999999999  1.0000
  O   O5010     1.0  0.49999999999999994  0.15625  0.6562499999999999  1.0000
  O   O5011     1.0  0.49999999999999994  0.21874999999999994  0.6562499999999999  1.0000
  O   O5012     1.0  0.49999999999999994  0.28125  0.6562499999999999  1.0000
  O   O5013     1.0  0.49999999999999994  0.3437499999999999  0.6562499999999999  1.0000
  O   O5014     1.0  0.49999999999999994  0.4062499999999999  0.6562499999999999  1.0000
  O   O5015     1.0  0.49999999999999994  0.4687499999999999  0.6562499999999999  1.0000
  O   O5016     1.0  0.49999999999999994  0.5312499999999999  0.6562499999999999  1.0000
  O   O5017     1.0  0.49999999999999994  0.5937499999999998  0.6562499999999999  1.0000
  O   O5018     1.0  0.49999999999999994  0.65625  0.6562499999999999  1.0000
  O   O5019     1.0  0.49999999999999994  0.7187499999999999  0.6562499999999999  1.0000
  O   O5020     1.0  0.49999999999999994  0.7812499999999999  0.6562499999999999  1.0000
  O   O5021     1.0  0.49999999999999994  0.8437500000000001  0.6562499999999999  1.0000
  O   O5022     1.0  0.49999999999999994  0.9062499999999998  0.6562499999999999  1.0000
  O   O5023     1.0  0.49999999999999994  0.9687499999999998  0.6562499999999999  1.0000
  O   O5024     1.0  0.49999999999999994  0.031249999999999993  0.6562499999999999  1.0000
  O   O5025     1.0  0.53125  0.062499999999999986  0.6249999999999999  1.0000
  O   O5026     1.0  0.53125  0.12499999999999997  0.6249999999999999  1.0000
  O   O5027     1.0  0.53125  0.18749999999999997  0.6249999999999999  1.0000
  O   O5028     1.0  0.53125  0.24999999999999994  0.6249999999999999  1.0000
  O   O5029     1.0  0.53125  0.3125  0.6249999999999999  1.0000
  O   O5030     1.0  0.53125  0.37499999999999994  0.6249999999999999  1.0000
  O   O5031     1.0  0.53125  0.4374999999999999  0.6249999999999999  1.0000
  O   O5032     1.0  0.53125  0.49999999999999983  0.6249999999999999  1.0000
  O   O5033     1.0  0.53125  0.5624999999999998  0.6249999999999999  1.0000
  O   O5034     1.0  0.53125  0.6249999999999998  0.6249999999999999  1.0000
  O   O5035     1.0  0.53125  0.6875  0.6249999999999999  1.0000
  O   O5036     1.0  0.53125  0.7499999999999999  0.6249999999999999  1.0000
  O   O5037     1.0  0.53125  0.8124999999999998  0.6249999999999999  1.0000
  O   O5038     1.0  0.53125  0.8749999999999998  0.6249999999999999  1.0000
  O   O5039     1.0  0.53125  0.9374999999999998  0.6249999999999999  1.0000
  O   O5040     1.0  0.53125  0.0  0.6249999999999999  1.0000
  O   O5041     1.0  0.5625  0.09374999999999999  0.5937500000000001  1.0000
  O   O5042     1.0  0.5625  0.15625  0.5937500000000001  1.0000
  O   O5043     1.0  0.5625  0.21874999999999994  0.5937500000000001  1.0000
  O   O5044     1.0  0.5625  0.2812499999999999  0.5937500000000001  1.0000
  O   O5045     1.0  0.5625  0.3437499999999999  0.5937500000000001  1.0000
  O   O5046     1.0  0.5625  0.4062499999999999  0.5937500000000001  1.0000
  O   O5047     1.0  0.5625  0.4687499999999999  0.5937500000000001  1.0000
  O   O5048     1.0  0.5625  0.53125  0.5937500000000001  1.0000
  O   O5049     1.0  0.5625  0.59375  0.5937500000000001  1.0000
  O   O5050     1.0  0.5625  0.65625  0.5937500000000001  1.0000
  O   O5051     1.0  0.5625  0.7187499999999999  0.5937500000000001  1.0000
  O   O5052     1.0  0.5625  0.7812499999999999  0.5937500000000001  1.0000
  O   O5053     1.0  0.5625  0.8437500000000001  0.5937500000000001  1.0000
  O   O5054     1.0  0.5625  0.9062499999999998  0.5937500000000001  1.0000
  O   O5055     1.0  0.5625  0.9687499999999998  0.5937500000000001  1.0000
  O   O5056     1.0  0.5625  0.031249999999999993  0.5937500000000001  1.0000
  O   O5057     1.0  0.59375  0.062499999999999986  0.5625000000000001  1.0000
  O   O5058     1.0  0.59375  0.12499999999999997  0.5625000000000001  1.0000
  O   O5059     1.0  0.59375  0.18749999999999997  0.5625000000000001  1.0000
  O   O5060     1.0  0.59375  0.24999999999999994  0.5625000000000001  1.0000
  O   O5061     1.0  0.59375  0.3125  0.5625000000000001  1.0000
  O   O5062     1.0  0.59375  0.37499999999999994  0.5625000000000001  1.0000
  O   O5063     1.0  0.59375  0.4374999999999999  0.5625000000000001  1.0000
  O   O5064     1.0  0.59375  0.49999999999999983  0.5625000000000001  1.0000
  O   O5065     1.0  0.59375  0.5624999999999998  0.5625000000000001  1.0000
  O   O5066     1.0  0.59375  0.6249999999999998  0.5625000000000001  1.0000
  O   O5067     1.0  0.59375  0.6875  0.5625000000000001  1.0000
  O   O5068     1.0  0.59375  0.7499999999999999  0.5625000000000001  1.0000
  O   O5069     1.0  0.59375  0.8124999999999998  0.5625000000000001  1.0000
  O   O5070     1.0  0.59375  0.8749999999999998  0.5625000000000001  1.0000
  O   O5071     1.0  0.59375  0.9374999999999998  0.5625000000000001  1.0000
  O   O5072     1.0  0.59375  0.0  0.5625000000000001  1.0000
  O   O5073     1.0  0.6250000000000001  0.09374999999999999  0.53125  1.0000
  O   O5074     1.0  0.6250000000000001  0.15625  0.53125  1.0000
  O   O5075     1.0  0.6250000000000001  0.21874999999999994  0.53125  1.0000
  O   O5076     1.0  0.6250000000000001  0.2812499999999999  0.53125  1.0000
  O   O5077     1.0  0.6250000000000001  0.3437499999999999  0.53125  1.0000
  O   O5078     1.0  0.6250000000000001  0.4062499999999999  0.53125  1.0000
  O   O5079     1.0  0.6250000000000001  0.4687499999999999  0.53125  1.0000
  O   O5080     1.0  0.6250000000000001  0.53125  0.53125  1.0000
  O   O5081     1.0  0.6250000000000001  0.59375  0.53125  1.0000
  O   O5082     1.0  0.6250000000000001  0.6562499999999998  0.53125  1.0000
  O   O5083     1.0  0.6250000000000001  0.7187499999999999  0.53125  1.0000
  O   O5084     1.0  0.6250000000000001  0.7812499999999999  0.53125  1.0000
  O   O5085     1.0  0.6250000000000001  0.8437499999999998  0.53125  1.0000
  O   O5086     1.0  0.6250000000000001  0.9062499999999998  0.53125  1.0000
  O   O5087     1.0  0.6250000000000001  0.9687499999999998  0.53125  1.0000
  O   O5088     1.0  0.6250000000000001  0.031249999999999993  0.53125  1.0000
  O   O5089     1.0  0.65625  0.062499999999999986  0.5000000000000002  1.0000
  O   O5090     1.0  0.65625  0.12499999999999997  0.5000000000000002  1.0000
  O   O5091     1.0  0.65625  0.18749999999999997  0.5000000000000002  1.0000
  O   O5092     1.0  0.65625  0.24999999999999994  0.5000000000000002  1.0000
  O   O5093     1.0  0.65625  0.3125  0.5000000000000002  1.0000
  O   O5094     1.0  0.65625  0.3749999999999999  0.5000000000000002  1.0000
  O   O5095     1.0  0.65625  0.4374999999999999  0.5000000000000002  1.0000
  O   O5096     1.0  0.65625  0.49999999999999983  0.5000000000000002  1.0000
  O   O5097     1.0  0.65625  0.5624999999999998  0.5000000000000002  1.0000
  O   O5098     1.0  0.65625  0.6249999999999998  0.5000000000000002  1.0000
  O   O5099     1.0  0.65625  0.6875  0.5000000000000002  1.0000
  O   O5100     1.0  0.65625  0.7499999999999999  0.5000000000000002  1.0000
  O   O5101     1.0  0.65625  0.8124999999999998  0.5000000000000002  1.0000
  O   O5102     1.0  0.65625  0.8749999999999998  0.5000000000000002  1.0000
  O   O5103     1.0  0.65625  0.9374999999999998  0.5000000000000002  1.0000
  O   O5104     1.0  0.65625  0.0  0.5000000000000002  1.0000
  O   O5105     1.0  0.6875000000000002  0.09374999999999999  0.4687500000000001  1.0000
  O   O5106     1.0  0.6875000000000002  0.15625  0.4687500000000001  1.0000
  O   O5107     1.0  0.6875000000000002  0.21874999999999994  0.4687500000000001  1.0000
  O   O5108     1.0  0.6875000000000002  0.2812499999999999  0.4687500000000001  1.0000
  O   O5109     1.0  0.6875000000000002  0.34375  0.4687500000000001  1.0000
  O   O5110     1.0  0.6875000000000002  0.4062499999999999  0.4687500000000001  1.0000
  O   O5111     1.0  0.6875000000000002  0.4687499999999999  0.4687500000000001  1.0000
  O   O5112     1.0  0.6875000000000002  0.53125  0.4687500000000001  1.0000
  O   O5113     1.0  0.6875000000000002  0.59375  0.4687500000000001  1.0000
  O   O5114     1.0  0.6875000000000002  0.6562499999999998  0.4687500000000001  1.0000
  O   O5115     1.0  0.6875000000000002  0.7187499999999999  0.4687500000000001  1.0000
  O   O5116     1.0  0.6875000000000002  0.7812499999999999  0.4687500000000001  1.0000
  O   O5117     1.0  0.6875000000000002  0.8437499999999998  0.4687500000000001  1.0000
  O   O5118     1.0  0.6875000000000002  0.9062499999999998  0.4687500000000001  1.0000
  O   O5119     1.0  0.6875000000000002  0.9687499999999998  0.4687500000000001  1.0000
  O   O5120     1.0  0.6875000000000002  0.031249999999999993  0.4687500000000001  1.0000
  O   O5121     1.0  0.71875  0.062499999999999986  0.4375000000000001  1.0000
  O   O5122     1.0  0.71875  0.12499999999999997  0.4375000000000001  1.0000
  O   O5123     1.0  0.71875  0.18749999999999997  0.4375000000000001  1.0000
  O   O5124     1.0  0.71875  0.24999999999999994  0.4375000000000001  1.0000
  O   O5125     1.0  0.71875  0.3124999999999999  0.4375000000000001  1.0000
  O   O5126     1.0  0.71875  0.3749999999999999  0.4375000000000001  1.0000
  O   O5127     1.0  0.71875  0.4374999999999999  0.4375000000000001  1.0000
  O   O5128     1.0  0.71875  0.49999999999999983  0.4375000000000001  1.0000
  O   O5129     1.0  0.71875  0.5624999999999998  0.4375000000000001  1.0000
  O   O5130     1.0  0.71875  0.625  0.4375000000000001  1.0000
  O   O5131     1.0  0.71875  0.6875  0.4375000000000001  1.0000
  O   O5132     1.0  0.71875  0.7499999999999999  0.4375000000000001  1.0000
  O   O5133     1.0  0.71875  0.8124999999999998  0.4375000000000001  1.0000
  O   O5134     1.0  0.71875  0.8749999999999998  0.4375000000000001  1.0000
  O   O5135     1.0  0.71875  0.9374999999999998  0.4375000000000001  1.0000
  O   O5136     1.0  0.71875  0.0  0.4375000000000001  1.0000
  O   O5137     1.0  0.75  0.09374999999999999  0.40625000000000017  1.0000
  O   O5138     1.0  0.75  0.15625  0.40625000000000017  1.0000
  O   O5139     1.0  0.75  0.21874999999999994  0.40625000000000017  1.0000
  O   O5140     1.0  0.75  0.28125  0.40625000000000017  1.0000
  O   O5141     1.0  0.75  0.34375  0.40625000000000017  1.0000
  O   O5142     1.0  0.75  0.4062499999999999  0.40625000000000017  1.0000
  O   O5143     1.0  0.75  0.4687499999999999  0.40625000000000017  1.0000
  O   O5144     1.0  0.75  0.53125  0.40625000000000017  1.0000
  O   O5145     1.0  0.75  0.5937499999999998  0.40625000000000017  1.0000
  O   O5146     1.0  0.75  0.6562499999999998  0.40625000000000017  1.0000
  O   O5147     1.0  0.75  0.7187499999999999  0.40625000000000017  1.0000
  O   O5148     1.0  0.75  0.7812499999999999  0.40625000000000017  1.0000
  O   O5149     1.0  0.75  0.8437499999999998  0.40625000000000017  1.0000
  O   O5150     1.0  0.75  0.9062499999999998  0.40625000000000017  1.0000
  O   O5151     1.0  0.75  0.9687499999999998  0.40625000000000017  1.0000
  O   O5152     1.0  0.75  0.031249999999999993  0.40625000000000017  1.0000
  O   O5153     1.0  0.7812499999999999  0.062499999999999986  0.3749999999999998  1.0000
  O   O5154     1.0  0.7812499999999999  0.12499999999999997  0.3749999999999998  1.0000
  O   O5155     1.0  0.7812499999999999  0.18749999999999997  0.3749999999999998  1.0000
  O   O5156     1.0  0.7812499999999999  0.24999999999999994  0.3749999999999998  1.0000
  O   O5157     1.0  0.7812499999999999  0.3124999999999999  0.3749999999999998  1.0000
  O   O5158     1.0  0.7812499999999999  0.3749999999999999  0.3749999999999998  1.0000
  O   O5159     1.0  0.7812499999999999  0.4374999999999999  0.3749999999999998  1.0000
  O   O5160     1.0  0.7812499999999999  0.49999999999999983  0.3749999999999998  1.0000
  O   O5161     1.0  0.7812499999999999  0.5624999999999998  0.3749999999999998  1.0000
  O   O5162     1.0  0.7812499999999999  0.625  0.3749999999999998  1.0000
  O   O5163     1.0  0.7812499999999999  0.6875  0.3749999999999998  1.0000
  O   O5164     1.0  0.7812499999999999  0.7499999999999999  0.3749999999999998  1.0000
  O   O5165     1.0  0.7812499999999999  0.8125000000000001  0.3749999999999998  1.0000
  O   O5166     1.0  0.7812499999999999  0.8749999999999998  0.3749999999999998  1.0000
  O   O5167     1.0  0.7812499999999999  0.9374999999999998  0.3749999999999998  1.0000
  O   O5168     1.0  0.7812499999999999  0.0  0.3749999999999998  1.0000
  O   O5169     1.0  0.8124999999999999  0.09374999999999999  0.34375000000000006  1.0000
  O   O5170     1.0  0.8124999999999999  0.15625  0.34375000000000006  1.0000
  O   O5171     1.0  0.8124999999999999  0.21874999999999994  0.34375000000000006  1.0000
  O   O5172     1.0  0.8124999999999999  0.28125  0.34375000000000006  1.0000
  O   O5173     1.0  0.8124999999999999  0.34375  0.34375000000000006  1.0000
  O   O5174     1.0  0.8124999999999999  0.4062499999999999  0.34375000000000006  1.0000
  O   O5175     1.0  0.8124999999999999  0.4687499999999999  0.34375000000000006  1.0000
  O   O5176     1.0  0.8124999999999999  0.5312499999999999  0.34375000000000006  1.0000
  O   O5177     1.0  0.8124999999999999  0.5937499999999998  0.34375000000000006  1.0000
  O   O5178     1.0  0.8124999999999999  0.6562499999999998  0.34375000000000006  1.0000
  O   O5179     1.0  0.8124999999999999  0.7187499999999999  0.34375000000000006  1.0000
  O   O5180     1.0  0.8124999999999999  0.7812499999999999  0.34375000000000006  1.0000
  O   O5181     1.0  0.8124999999999999  0.8437499999999998  0.34375000000000006  1.0000
  O   O5182     1.0  0.8124999999999999  0.9062499999999998  0.34375000000000006  1.0000
  O   O5183     1.0  0.8124999999999999  0.9687499999999998  0.34375000000000006  1.0000
  O   O5184     1.0  0.8124999999999999  0.031249999999999993  0.34375000000000006  1.0000
  O   O5185     1.0  0.8437500000000001  0.062499999999999986  0.31250000000000006  1.0000
  O   O5186     1.0  0.8437500000000001  0.12499999999999997  0.31250000000000006  1.0000
  O   O5187     1.0  0.8437500000000001  0.18749999999999997  0.31250000000000006  1.0000
  O   O5188     1.0  0.8437500000000001  0.24999999999999994  0.31250000000000006  1.0000
  O   O5189     1.0  0.8437500000000001  0.3124999999999999  0.31250000000000006  1.0000
  O   O5190     1.0  0.8437500000000001  0.3749999999999999  0.31250000000000006  1.0000
  O   O5191     1.0  0.8437500000000001  0.4374999999999999  0.31250000000000006  1.0000
  O   O5192     1.0  0.8437500000000001  0.4999999999999999  0.31250000000000006  1.0000
  O   O5193     1.0  0.8437500000000001  0.5625  0.31250000000000006  1.0000
  O   O5194     1.0  0.8437500000000001  0.625  0.31250000000000006  1.0000
  O   O5195     1.0  0.8437500000000001  0.6874999999999998  0.31250000000000006  1.0000
  O   O5196     1.0  0.8437500000000001  0.7499999999999999  0.31250000000000006  1.0000
  O   O5197     1.0  0.8437500000000001  0.8125000000000001  0.31250000000000006  1.0000
  O   O5198     1.0  0.8437500000000001  0.8749999999999998  0.31250000000000006  1.0000
  O   O5199     1.0  0.8437500000000001  0.9374999999999998  0.31250000000000006  1.0000
  O   O5200     1.0  0.8437500000000001  0.9999999999999999  0.31250000000000006  1.0000
  O   O5201     1.0  0.8749999999999999  0.09374999999999999  0.2812499999999999  1.0000
  O   O5202     1.0  0.8749999999999999  0.15625  0.2812499999999999  1.0000
  O   O5203     1.0  0.8749999999999999  0.21874999999999994  0.2812499999999999  1.0000
  O   O5204     1.0  0.8749999999999999  0.28125  0.2812499999999999  1.0000
  O   O5205     1.0  0.8749999999999999  0.34375  0.2812499999999999  1.0000
  O   O5206     1.0  0.8749999999999999  0.4062499999999999  0.2812499999999999  1.0000
  O   O5207     1.0  0.8749999999999999  0.4687499999999999  0.2812499999999999  1.0000
  O   O5208     1.0  0.8749999999999999  0.5312499999999999  0.2812499999999999  1.0000
  O   O5209     1.0  0.8749999999999999  0.5937499999999998  0.2812499999999999  1.0000
  O   O5210     1.0  0.8749999999999999  0.6562499999999998  0.2812499999999999  1.0000
  O   O5211     1.0  0.8749999999999999  0.7187499999999999  0.2812499999999999  1.0000
  O   O5212     1.0  0.8749999999999999  0.7812499999999999  0.2812499999999999  1.0000
  O   O5213     1.0  0.8749999999999999  0.8437499999999998  0.2812499999999999  1.0000
  O   O5214     1.0  0.8749999999999999  0.9062499999999998  0.2812499999999999  1.0000
  O   O5215     1.0  0.8749999999999999  0.9687499999999998  0.2812499999999999  1.0000
  O   O5216     1.0  0.8749999999999999  0.031249999999999993  0.2812499999999999  1.0000
  O   O5217     1.0  0.9062500000000001  0.062499999999999986  0.25  1.0000
  O   O5218     1.0  0.9062500000000001  0.12499999999999997  0.25  1.0000
  O   O5219     1.0  0.9062500000000001  0.18749999999999997  0.25  1.0000
  O   O5220     1.0  0.9062500000000001  0.24999999999999983  0.25  1.0000
  O   O5221     1.0  0.9062500000000001  0.3124999999999999  0.25  1.0000
  O   O5222     1.0  0.9062500000000001  0.37499999999999994  0.25  1.0000
  O   O5223     1.0  0.9062500000000001  0.4374999999999999  0.25  1.0000
  O   O5224     1.0  0.9062500000000001  0.4999999999999999  0.25  1.0000
  O   O5225     1.0  0.9062500000000001  0.5625  0.25  1.0000
  O   O5226     1.0  0.9062500000000001  0.625  0.25  1.0000
  O   O5227     1.0  0.9062500000000001  0.6874999999999998  0.25  1.0000
  O   O5228     1.0  0.9062500000000001  0.7499999999999999  0.25  1.0000
  O   O5229     1.0  0.9062500000000001  0.8124999999999998  0.25  1.0000
  O   O5230     1.0  0.9062500000000001  0.8749999999999998  0.25  1.0000
  O   O5231     1.0  0.9062500000000001  0.9374999999999998  0.25  1.0000
  O   O5232     1.0  0.9062500000000001  0.9999999999999999  0.25  1.0000
  O   O5233     1.0  0.9375  0.09374999999999999  0.2187499999999997  1.0000
  O   O5234     1.0  0.9375  0.15625  0.2187499999999997  1.0000
  O   O5235     1.0  0.9375  0.21874999999999994  0.2187499999999997  1.0000
  O   O5236     1.0  0.9375  0.28125  0.2187499999999997  1.0000
  O   O5237     1.0  0.9375  0.3437499999999999  0.2187499999999997  1.0000
  O   O5238     1.0  0.9375  0.4062499999999999  0.2187499999999997  1.0000
  O   O5239     1.0  0.9375  0.4687499999999999  0.2187499999999997  1.0000
  O   O5240     1.0  0.9375  0.5312499999999999  0.2187499999999997  1.0000
  O   O5241     1.0  0.9375  0.5937499999999998  0.2187499999999997  1.0000
  O   O5242     1.0  0.9375  0.6562499999999998  0.2187499999999997  1.0000
  O   O5243     1.0  0.9375  0.7187499999999999  0.2187499999999997  1.0000
  O   O5244     1.0  0.9375  0.7812499999999999  0.2187499999999997  1.0000
  O   O5245     1.0  0.9375  0.8437499999999998  0.2187499999999997  1.0000
  O   O5246     1.0  0.9375  0.9062499999999998  0.2187499999999997  1.0000
  O   O5247     1.0  0.9375  0.9687499999999998  0.2187499999999997  1.0000
  O   O5248     1.0  0.9375  0.031249999999999993  0.2187499999999997  1.0000
  O   O5249     1.0  0.9687500000000002  0.062499999999999986  0.1874999999999997  1.0000
  O   O5250     1.0  0.9687500000000002  0.12499999999999997  0.1874999999999997  1.0000
  O   O5251     1.0  0.9687500000000002  0.18749999999999997  0.1874999999999997  1.0000
  O   O5252     1.0  0.9687500000000002  0.24999999999999983  0.1874999999999997  1.0000
  O   O5253     1.0  0.9687500000000002  0.3125  0.1874999999999997  1.0000
  O   O5254     1.0  0.9687500000000002  0.37499999999999994  0.1874999999999997  1.0000
  O   O5255     1.0  0.9687500000000002  0.4374999999999999  0.1874999999999997  1.0000
  O   O5256     1.0  0.9687500000000002  0.49999999999999983  0.1874999999999997  1.0000
  O   O5257     1.0  0.9687500000000002  0.5625  0.1874999999999997  1.0000
  O   O5258     1.0  0.9687500000000002  0.6249999999999998  0.1874999999999997  1.0000
  O   O5259     1.0  0.9687500000000002  0.6874999999999998  0.1874999999999997  1.0000
  O   O5260     1.0  0.9687500000000002  0.7499999999999999  0.1874999999999997  1.0000
  O   O5261     1.0  0.9687500000000002  0.8124999999999998  0.1874999999999997  1.0000
  O   O5262     1.0  0.9687500000000002  0.8749999999999998  0.1874999999999997  1.0000
  O   O5263     1.0  0.9687500000000002  0.9374999999999998  0.1874999999999997  1.0000
  O   O5264     1.0  0.9687500000000002  0.9999999999999999  0.1874999999999997  1.0000
  O   O5265     1.0  0.0  0.09374999999999999  0.15624999999999994  1.0000
  O   O5266     1.0  0.0  0.15625  0.15624999999999994  1.0000
  O   O5267     1.0  0.0  0.21874999999999994  0.15624999999999994  1.0000
  O   O5268     1.0  0.0  0.28125  0.15624999999999994  1.0000
  O   O5269     1.0  0.0  0.3437499999999999  0.15624999999999994  1.0000
  O   O5270     1.0  0.0  0.4062499999999999  0.15624999999999994  1.0000
  O   O5271     1.0  0.0  0.4687499999999999  0.15624999999999994  1.0000
  O   O5272     1.0  0.0  0.5312499999999999  0.15624999999999994  1.0000
  O   O5273     1.0  0.0  0.59375  0.15624999999999994  1.0000
  O   O5274     1.0  0.0  0.65625  0.15624999999999994  1.0000
  O   O5275     1.0  0.0  0.7187499999999999  0.15624999999999994  1.0000
  O   O5276     1.0  0.0  0.7812499999999999  0.15624999999999994  1.0000
  O   O5277     1.0  0.0  0.8437499999999998  0.15624999999999994  1.0000
  O   O5278     1.0  0.0  0.9062499999999998  0.15624999999999994  1.0000
  O   O5279     1.0  0.0  0.9687499999999998  0.15624999999999994  1.0000
  O   O5280     1.0  0.0  0.031249999999999993  0.15624999999999994  1.0000
  O   O5281     1.0  0.21875  0.062499999999999986  0.0  1.0000
  O   O5282     1.0  0.21875  0.12499999999999997  0.0  1.0000
  O   O5283     1.0  0.21875  0.18749999999999997  0.0  1.0000
  O   O5284     1.0  0.21875  0.24999999999999994  0.0  1.0000
  O   O5285     1.0  0.21875  0.3124999999999999  0.0  1.0000
  O   O5286     1.0  0.21875  0.3749999999999999  0.0  1.0000
  O   O5287     1.0  0.21875  0.4374999999999999  0.0  1.0000
  O   O5288     1.0  0.21875  0.49999999999999983  0.0  1.0000
  O   O5289     1.0  0.21875  0.5624999999999998  0.0  1.0000
  O   O5290     1.0  0.21875  0.6249999999999998  0.0  1.0000
  O   O5291     1.0  0.21875  0.6875  0.0  1.0000
  O   O5292     1.0  0.21875  0.7499999999999999  0.0  1.0000
  O   O5293     1.0  0.21875  0.8124999999999998  0.0  1.0000
  O   O5294     1.0  0.21875  0.8750000000000001  0.0  1.0000
  O   O5295     1.0  0.21875  0.9374999999999998  0.0  1.0000
  O   O5296     1.0  0.21875  0.0  0.0  1.0000
  O   O5297     1.0  0.25  0.09374999999999999  0.9687500000000001  1.0000
  O   O5298     1.0  0.25  0.15625  0.9687500000000001  1.0000
  O   O5299     1.0  0.25  0.21874999999999994  0.9687500000000001  1.0000
  O   O5300     1.0  0.25  0.28125  0.9687500000000001  1.0000
  O   O5301     1.0  0.25  0.34375  0.9687500000000001  1.0000
  O   O5302     1.0  0.25  0.4062499999999999  0.9687500000000001  1.0000
  O   O5303     1.0  0.25  0.4687499999999999  0.9687500000000001  1.0000
  O   O5304     1.0  0.25  0.53125  0.9687500000000001  1.0000
  O   O5305     1.0  0.25  0.5937499999999998  0.9687500000000001  1.0000
  O   O5306     1.0  0.25  0.6562499999999998  0.9687500000000001  1.0000
  O   O5307     1.0  0.25  0.7187499999999999  0.9687500000000001  1.0000
  O   O5308     1.0  0.25  0.7812499999999999  0.9687500000000001  1.0000
  O   O5309     1.0  0.25  0.8437499999999998  0.9687500000000001  1.0000
  O   O5310     1.0  0.25  0.9062499999999998  0.9687500000000001  1.0000
  O   O5311     1.0  0.25  0.9687499999999998  0.9687500000000001  1.0000
  O   O5312     1.0  0.25  0.031249999999999993  0.9687500000000001  1.0000
  O   O5313     1.0  0.28125  0.062499999999999986  0.9375000000000001  1.0000
  O   O5314     1.0  0.28125  0.12499999999999997  0.9375000000000001  1.0000
  O   O5315     1.0  0.28125  0.18749999999999997  0.9375000000000001  1.0000
  O   O5316     1.0  0.28125  0.24999999999999994  0.9375000000000001  1.0000
  O   O5317     1.0  0.28125  0.3124999999999999  0.9375000000000001  1.0000
  O   O5318     1.0  0.28125  0.3749999999999999  0.9375000000000001  1.0000
  O   O5319     1.0  0.28125  0.4374999999999999  0.9375000000000001  1.0000
  O   O5320     1.0  0.28125  0.49999999999999983  0.9375000000000001  1.0000
  O   O5321     1.0  0.28125  0.5625  0.9375000000000001  1.0000
  O   O5322     1.0  0.28125  0.625  0.9375000000000001  1.0000
  O   O5323     1.0  0.28125  0.6875  0.9375000000000001  1.0000
  O   O5324     1.0  0.28125  0.7499999999999999  0.9375000000000001  1.0000
  O   O5325     1.0  0.28125  0.8124999999999998  0.9375000000000001  1.0000
  O   O5326     1.0  0.28125  0.8750000000000001  0.9375000000000001  1.0000
  O   O5327     1.0  0.28125  0.9374999999999998  0.9375000000000001  1.0000
  O   O5328     1.0  0.28125  0.0  0.9375000000000001  1.0000
  O   O5329     1.0  0.3125000000000001  0.09374999999999999  0.9062500000000001  1.0000
  O   O5330     1.0  0.3125000000000001  0.15625  0.9062500000000001  1.0000
  O   O5331     1.0  0.3125000000000001  0.21874999999999994  0.9062500000000001  1.0000
  O   O5332     1.0  0.3125000000000001  0.28125  0.9062500000000001  1.0000
  O   O5333     1.0  0.3125000000000001  0.34375  0.9062500000000001  1.0000
  O   O5334     1.0  0.3125000000000001  0.4062499999999999  0.9062500000000001  1.0000
  O   O5335     1.0  0.3125000000000001  0.4687499999999999  0.9062500000000001  1.0000
  O   O5336     1.0  0.3125000000000001  0.5312499999999999  0.9062500000000001  1.0000
  O   O5337     1.0  0.3125000000000001  0.5937499999999998  0.9062500000000001  1.0000
  O   O5338     1.0  0.3125000000000001  0.6562499999999998  0.9062500000000001  1.0000
  O   O5339     1.0  0.3125000000000001  0.7187499999999999  0.9062500000000001  1.0000
  O   O5340     1.0  0.3125000000000001  0.7812499999999999  0.9062500000000001  1.0000
  O   O5341     1.0  0.3125000000000001  0.8437499999999998  0.9062500000000001  1.0000
  O   O5342     1.0  0.3125000000000001  0.9062499999999998  0.9062500000000001  1.0000
  O   O5343     1.0  0.3125000000000001  0.9687499999999998  0.9062500000000001  1.0000
  O   O5344     1.0  0.3125000000000001  0.031249999999999993  0.9062500000000001  1.0000
  O   O5345     1.0  0.3437500000000001  0.062499999999999986  0.875  1.0000
  O   O5346     1.0  0.3437500000000001  0.12499999999999997  0.875  1.0000
  O   O5347     1.0  0.3437500000000001  0.18749999999999997  0.875  1.0000
  O   O5348     1.0  0.3437500000000001  0.24999999999999994  0.875  1.0000
  O   O5349     1.0  0.3437500000000001  0.3124999999999999  0.875  1.0000
  O   O5350     1.0  0.3437500000000001  0.3749999999999999  0.875  1.0000
  O   O5351     1.0  0.3437500000000001  0.4374999999999999  0.875  1.0000
  O   O5352     1.0  0.3437500000000001  0.49999999999999983  0.875  1.0000
  O   O5353     1.0  0.3437500000000001  0.5625  0.875  1.0000
  O   O5354     1.0  0.3437500000000001  0.625  0.875  1.0000
  O   O5355     1.0  0.3437500000000001  0.6875  0.875  1.0000
  O   O5356     1.0  0.3437500000000001  0.7499999999999999  0.875  1.0000
  O   O5357     1.0  0.3437500000000001  0.8124999999999998  0.875  1.0000
  O   O5358     1.0  0.3437500000000001  0.8749999999999998  0.875  1.0000
  O   O5359     1.0  0.3437500000000001  0.9374999999999998  0.875  1.0000
  O   O5360     1.0  0.3437500000000001  0.0  0.875  1.0000
  O   O5361     1.0  0.3749999999999999  0.09374999999999999  0.84375  1.0000
  O   O5362     1.0  0.3749999999999999  0.15625  0.84375  1.0000
  O   O5363     1.0  0.3749999999999999  0.21874999999999994  0.84375  1.0000
  O   O5364     1.0  0.3749999999999999  0.28125  0.84375  1.0000
  O   O5365     1.0  0.3749999999999999  0.34375  0.84375  1.0000
  O   O5366     1.0  0.3749999999999999  0.4062499999999999  0.84375  1.0000
  O   O5367     1.0  0.3749999999999999  0.4687499999999999  0.84375  1.0000
  O   O5368     1.0  0.3749999999999999  0.5312499999999999  0.84375  1.0000
  O   O5369     1.0  0.3749999999999999  0.5937499999999998  0.84375  1.0000
  O   O5370     1.0  0.3749999999999999  0.6562499999999998  0.84375  1.0000
  O   O5371     1.0  0.3749999999999999  0.7187499999999999  0.84375  1.0000
  O   O5372     1.0  0.3749999999999999  0.7812499999999999  0.84375  1.0000
  O   O5373     1.0  0.3749999999999999  0.8437499999999998  0.84375  1.0000
  O   O5374     1.0  0.3749999999999999  0.9062499999999998  0.84375  1.0000
  O   O5375     1.0  0.3749999999999999  0.9687499999999998  0.84375  1.0000
  O   O5376     1.0  0.3749999999999999  0.031249999999999993  0.84375  1.0000
  O   O5377     1.0  0.4062499999999999  0.062499999999999986  0.8125  1.0000
  O   O5378     1.0  0.4062499999999999  0.12499999999999997  0.8125  1.0000
  O   O5379     1.0  0.4062499999999999  0.18749999999999997  0.8125  1.0000
  O   O5380     1.0  0.4062499999999999  0.24999999999999983  0.8125  1.0000
  O   O5381     1.0  0.4062499999999999  0.3124999999999999  0.8125  1.0000
  O   O5382     1.0  0.4062499999999999  0.37499999999999994  0.8125  1.0000
  O   O5383     1.0  0.4062499999999999  0.4374999999999999  0.8125  1.0000
  O   O5384     1.0  0.4062499999999999  0.4999999999999999  0.8125  1.0000
  O   O5385     1.0  0.4062499999999999  0.5625  0.8125  1.0000
  O   O5386     1.0  0.4062499999999999  0.625  0.8125  1.0000
  O   O5387     1.0  0.4062499999999999  0.6875  0.8125  1.0000
  O   O5388     1.0  0.4062499999999999  0.7500000000000001  0.8125  1.0000
  O   O5389     1.0  0.4062499999999999  0.8124999999999998  0.8125  1.0000
  O   O5390     1.0  0.4062499999999999  0.8749999999999998  0.8125  1.0000
  O   O5391     1.0  0.4062499999999999  0.9374999999999998  0.8125  1.0000
  O   O5392     1.0  0.4062499999999999  0.0  0.8125  1.0000
  O   O5393     1.0  0.4374999999999999  0.09374999999999999  0.78125  1.0000
  O   O5394     1.0  0.4374999999999999  0.15625  0.78125  1.0000
  O   O5395     1.0  0.4374999999999999  0.21874999999999994  0.78125  1.0000
  O   O5396     1.0  0.4374999999999999  0.28125  0.78125  1.0000
  O   O5397     1.0  0.4374999999999999  0.3437499999999999  0.78125  1.0000
  O   O5398     1.0  0.4374999999999999  0.4062499999999999  0.78125  1.0000
  O   O5399     1.0  0.4374999999999999  0.4687499999999999  0.78125  1.0000
  O   O5400     1.0  0.4374999999999999  0.5312499999999999  0.78125  1.0000
  O   O5401     1.0  0.4374999999999999  0.5937499999999998  0.78125  1.0000
  O   O5402     1.0  0.4374999999999999  0.65625  0.78125  1.0000
  O   O5403     1.0  0.4374999999999999  0.7187499999999999  0.78125  1.0000
  O   O5404     1.0  0.4374999999999999  0.7812499999999999  0.78125  1.0000
  O   O5405     1.0  0.4374999999999999  0.8437499999999998  0.78125  1.0000
  O   O5406     1.0  0.4374999999999999  0.9062499999999998  0.78125  1.0000
  O   O5407     1.0  0.4374999999999999  0.9687499999999998  0.78125  1.0000
  O   O5408     1.0  0.4374999999999999  0.031249999999999993  0.78125  1.0000
  O   O5409     1.0  0.4687499999999999  0.062499999999999986  0.75  1.0000
  O   O5410     1.0  0.4687499999999999  0.12499999999999997  0.75  1.0000
  O   O5411     1.0  0.4687499999999999  0.18749999999999997  0.75  1.0000
  O   O5412     1.0  0.4687499999999999  0.24999999999999983  0.75  1.0000
  O   O5413     1.0  0.4687499999999999  0.3125  0.75  1.0000
  O   O5414     1.0  0.4687499999999999  0.37499999999999994  0.75  1.0000
  O   O5415     1.0  0.4687499999999999  0.4374999999999999  0.75  1.0000
  O   O5416     1.0  0.4687499999999999  0.49999999999999983  0.75  1.0000
  O   O5417     1.0  0.4687499999999999  0.5625  0.75  1.0000
  O   O5418     1.0  0.4687499999999999  0.6249999999999998  0.75  1.0000
  O   O5419     1.0  0.4687499999999999  0.6875  0.75  1.0000
  O   O5420     1.0  0.4687499999999999  0.7500000000000001  0.75  1.0000
  O   O5421     1.0  0.4687499999999999  0.8124999999999998  0.75  1.0000
  O   O5422     1.0  0.4687499999999999  0.8749999999999998  0.75  1.0000
  O   O5423     1.0  0.4687499999999999  0.9374999999999998  0.75  1.0000
  O   O5424     1.0  0.4687499999999999  0.0  0.75  1.0000
  O   O5425     1.0  0.49999999999999994  0.09374999999999999  0.71875  1.0000
  O   O5426     1.0  0.49999999999999994  0.15625  0.71875  1.0000
  O   O5427     1.0  0.49999999999999994  0.21874999999999994  0.71875  1.0000
  O   O5428     1.0  0.49999999999999994  0.28125  0.71875  1.0000
  O   O5429     1.0  0.49999999999999994  0.3437499999999999  0.71875  1.0000
  O   O5430     1.0  0.49999999999999994  0.4062499999999999  0.71875  1.0000
  O   O5431     1.0  0.49999999999999994  0.4687499999999999  0.71875  1.0000
  O   O5432     1.0  0.49999999999999994  0.5312499999999999  0.71875  1.0000
  O   O5433     1.0  0.49999999999999994  0.5937499999999998  0.71875  1.0000
  O   O5434     1.0  0.49999999999999994  0.65625  0.71875  1.0000
  O   O5435     1.0  0.49999999999999994  0.7187499999999999  0.71875  1.0000
  O   O5436     1.0  0.49999999999999994  0.7812499999999999  0.71875  1.0000
  O   O5437     1.0  0.49999999999999994  0.8437500000000001  0.71875  1.0000
  O   O5438     1.0  0.49999999999999994  0.9062499999999998  0.71875  1.0000
  O   O5439     1.0  0.49999999999999994  0.9687499999999998  0.71875  1.0000
  O   O5440     1.0  0.49999999999999994  0.031249999999999993  0.71875  1.0000
  O   O5441     1.0  0.53125  0.062499999999999986  0.6875000000000001  1.0000
  O   O5442     1.0  0.53125  0.12499999999999997  0.6875000000000001  1.0000
  O   O5443     1.0  0.53125  0.18749999999999997  0.6875000000000001  1.0000
  O   O5444     1.0  0.53125  0.24999999999999994  0.6875000000000001  1.0000
  O   O5445     1.0  0.53125  0.3125  0.6875000000000001  1.0000
  O   O5446     1.0  0.53125  0.37499999999999994  0.6875000000000001  1.0000
  O   O5447     1.0  0.53125  0.4374999999999999  0.6875000000000001  1.0000
  O   O5448     1.0  0.53125  0.49999999999999983  0.6875000000000001  1.0000
  O   O5449     1.0  0.53125  0.5624999999999998  0.6875000000000001  1.0000
  O   O5450     1.0  0.53125  0.6249999999999998  0.6875000000000001  1.0000
  O   O5451     1.0  0.53125  0.6875  0.6875000000000001  1.0000
  O   O5452     1.0  0.53125  0.7499999999999999  0.6875000000000001  1.0000
  O   O5453     1.0  0.53125  0.8124999999999998  0.6875000000000001  1.0000
  O   O5454     1.0  0.53125  0.8749999999999998  0.6875000000000001  1.0000
  O   O5455     1.0  0.53125  0.9374999999999998  0.6875000000000001  1.0000
  O   O5456     1.0  0.53125  0.0  0.6875000000000001  1.0000
  O   O5457     1.0  0.5624999999999999  0.09374999999999999  0.6562500000000001  1.0000
  O   O5458     1.0  0.5624999999999999  0.15625  0.6562500000000001  1.0000
  O   O5459     1.0  0.5624999999999999  0.21874999999999994  0.6562500000000001  1.0000
  O   O5460     1.0  0.5624999999999999  0.2812499999999999  0.6562500000000001  1.0000
  O   O5461     1.0  0.5624999999999999  0.3437499999999999  0.6562500000000001  1.0000
  O   O5462     1.0  0.5624999999999999  0.4062499999999999  0.6562500000000001  1.0000
  O   O5463     1.0  0.5624999999999999  0.4687499999999999  0.6562500000000001  1.0000
  O   O5464     1.0  0.5624999999999999  0.53125  0.6562500000000001  1.0000
  O   O5465     1.0  0.5624999999999999  0.59375  0.6562500000000001  1.0000
  O   O5466     1.0  0.5624999999999999  0.65625  0.6562500000000001  1.0000
  O   O5467     1.0  0.5624999999999999  0.7187499999999999  0.6562500000000001  1.0000
  O   O5468     1.0  0.5624999999999999  0.7812499999999999  0.6562500000000001  1.0000
  O   O5469     1.0  0.5624999999999999  0.8437500000000001  0.6562500000000001  1.0000
  O   O5470     1.0  0.5624999999999999  0.9062499999999998  0.6562500000000001  1.0000
  O   O5471     1.0  0.5624999999999999  0.9687499999999998  0.6562500000000001  1.0000
  O   O5472     1.0  0.5624999999999999  0.031249999999999993  0.6562500000000001  1.0000
  O   O5473     1.0  0.59375  0.062499999999999986  0.6250000000000001  1.0000
  O   O5474     1.0  0.59375  0.12499999999999997  0.6250000000000001  1.0000
  O   O5475     1.0  0.59375  0.18749999999999997  0.6250000000000001  1.0000
  O   O5476     1.0  0.59375  0.24999999999999994  0.6250000000000001  1.0000
  O   O5477     1.0  0.59375  0.3125  0.6250000000000001  1.0000
  O   O5478     1.0  0.59375  0.37499999999999994  0.6250000000000001  1.0000
  O   O5479     1.0  0.59375  0.4374999999999999  0.6250000000000001  1.0000
  O   O5480     1.0  0.59375  0.49999999999999983  0.6250000000000001  1.0000
  O   O5481     1.0  0.59375  0.5624999999999998  0.6250000000000001  1.0000
  O   O5482     1.0  0.59375  0.6249999999999998  0.6250000000000001  1.0000
  O   O5483     1.0  0.59375  0.6875  0.6250000000000001  1.0000
  O   O5484     1.0  0.59375  0.7499999999999999  0.6250000000000001  1.0000
  O   O5485     1.0  0.59375  0.8124999999999998  0.6250000000000001  1.0000
  O   O5486     1.0  0.59375  0.8749999999999998  0.6250000000000001  1.0000
  O   O5487     1.0  0.59375  0.9374999999999998  0.6250000000000001  1.0000
  O   O5488     1.0  0.59375  0.0  0.6250000000000001  1.0000
  O   O5489     1.0  0.6250000000000002  0.09374999999999999  0.5937500000000001  1.0000
  O   O5490     1.0  0.6250000000000002  0.15625  0.5937500000000001  1.0000
  O   O5491     1.0  0.6250000000000002  0.21874999999999994  0.5937500000000001  1.0000
  O   O5492     1.0  0.6250000000000002  0.2812499999999999  0.5937500000000001  1.0000
  O   O5493     1.0  0.6250000000000002  0.3437499999999999  0.5937500000000001  1.0000
  O   O5494     1.0  0.6250000000000002  0.4062499999999999  0.5937500000000001  1.0000
  O   O5495     1.0  0.6250000000000002  0.4687499999999999  0.5937500000000001  1.0000
  O   O5496     1.0  0.6250000000000002  0.53125  0.5937500000000001  1.0000
  O   O5497     1.0  0.6250000000000002  0.59375  0.5937500000000001  1.0000
  O   O5498     1.0  0.6250000000000002  0.6562499999999998  0.5937500000000001  1.0000
  O   O5499     1.0  0.6250000000000002  0.7187499999999999  0.5937500000000001  1.0000
  O   O5500     1.0  0.6250000000000002  0.7812499999999999  0.5937500000000001  1.0000
  O   O5501     1.0  0.6250000000000002  0.8437499999999998  0.5937500000000001  1.0000
  O   O5502     1.0  0.6250000000000002  0.9062499999999998  0.5937500000000001  1.0000
  O   O5503     1.0  0.6250000000000002  0.9687499999999998  0.5937500000000001  1.0000
  O   O5504     1.0  0.6250000000000002  0.031249999999999993  0.5937500000000001  1.0000
  O   O5505     1.0  0.6562499999999999  0.062499999999999986  0.5625000000000001  1.0000
  O   O5506     1.0  0.6562499999999999  0.12499999999999997  0.5625000000000001  1.0000
  O   O5507     1.0  0.6562499999999999  0.18749999999999997  0.5625000000000001  1.0000
  O   O5508     1.0  0.6562499999999999  0.24999999999999994  0.5625000000000001  1.0000
  O   O5509     1.0  0.6562499999999999  0.3125  0.5625000000000001  1.0000
  O   O5510     1.0  0.6562499999999999  0.3749999999999999  0.5625000000000001  1.0000
  O   O5511     1.0  0.6562499999999999  0.4374999999999999  0.5625000000000001  1.0000
  O   O5512     1.0  0.6562499999999999  0.49999999999999983  0.5625000000000001  1.0000
  O   O5513     1.0  0.6562499999999999  0.5624999999999998  0.5625000000000001  1.0000
  O   O5514     1.0  0.6562499999999999  0.6249999999999998  0.5625000000000001  1.0000
  O   O5515     1.0  0.6562499999999999  0.6875  0.5625000000000001  1.0000
  O   O5516     1.0  0.6562499999999999  0.7499999999999999  0.5625000000000001  1.0000
  O   O5517     1.0  0.6562499999999999  0.8124999999999998  0.5625000000000001  1.0000
  O   O5518     1.0  0.6562499999999999  0.8749999999999998  0.5625000000000001  1.0000
  O   O5519     1.0  0.6562499999999999  0.9374999999999998  0.5625000000000001  1.0000
  O   O5520     1.0  0.6562499999999999  0.0  0.5625000000000001  1.0000
  O   O5521     1.0  0.6875000000000001  0.09374999999999999  0.53125  1.0000
  O   O5522     1.0  0.6875000000000001  0.15625  0.53125  1.0000
  O   O5523     1.0  0.6875000000000001  0.21874999999999994  0.53125  1.0000
  O   O5524     1.0  0.6875000000000001  0.2812499999999999  0.53125  1.0000
  O   O5525     1.0  0.6875000000000001  0.34375  0.53125  1.0000
  O   O5526     1.0  0.6875000000000001  0.4062499999999999  0.53125  1.0000
  O   O5527     1.0  0.6875000000000001  0.4687499999999999  0.53125  1.0000
  O   O5528     1.0  0.6875000000000001  0.53125  0.53125  1.0000
  O   O5529     1.0  0.6875000000000001  0.59375  0.53125  1.0000
  O   O5530     1.0  0.6875000000000001  0.6562499999999998  0.53125  1.0000
  O   O5531     1.0  0.6875000000000001  0.7187499999999999  0.53125  1.0000
  O   O5532     1.0  0.6875000000000001  0.7812499999999999  0.53125  1.0000
  O   O5533     1.0  0.6875000000000001  0.8437499999999998  0.53125  1.0000
  O   O5534     1.0  0.6875000000000001  0.9062499999999998  0.53125  1.0000
  O   O5535     1.0  0.6875000000000001  0.9687499999999998  0.53125  1.0000
  O   O5536     1.0  0.6875000000000001  0.031249999999999993  0.53125  1.0000
  O   O5537     1.0  0.71875  0.062499999999999986  0.5  1.0000
  O   O5538     1.0  0.71875  0.12499999999999997  0.5  1.0000
  O   O5539     1.0  0.71875  0.18749999999999997  0.5  1.0000
  O   O5540     1.0  0.71875  0.24999999999999994  0.5  1.0000
  O   O5541     1.0  0.71875  0.3124999999999999  0.5  1.0000
  O   O5542     1.0  0.71875  0.3749999999999999  0.5  1.0000
  O   O5543     1.0  0.71875  0.4374999999999999  0.5  1.0000
  O   O5544     1.0  0.71875  0.49999999999999983  0.5  1.0000
  O   O5545     1.0  0.71875  0.5624999999999998  0.5  1.0000
  O   O5546     1.0  0.71875  0.625  0.5  1.0000
  O   O5547     1.0  0.71875  0.6875  0.5  1.0000
  O   O5548     1.0  0.71875  0.7499999999999999  0.5  1.0000
  O   O5549     1.0  0.71875  0.8124999999999998  0.5  1.0000
  O   O5550     1.0  0.71875  0.8749999999999998  0.5  1.0000
  O   O5551     1.0  0.71875  0.9374999999999998  0.5  1.0000
  O   O5552     1.0  0.71875  0.0  0.5  1.0000
  O   O5553     1.0  0.75  0.09374999999999999  0.4687500000000001  1.0000
  O   O5554     1.0  0.75  0.15625  0.4687500000000001  1.0000
  O   O5555     1.0  0.75  0.21874999999999994  0.4687500000000001  1.0000
  O   O5556     1.0  0.75  0.28125  0.4687500000000001  1.0000
  O   O5557     1.0  0.75  0.34375  0.4687500000000001  1.0000
  O   O5558     1.0  0.75  0.4062499999999999  0.4687500000000001  1.0000
  O   O5559     1.0  0.75  0.4687499999999999  0.4687500000000001  1.0000
  O   O5560     1.0  0.75  0.53125  0.4687500000000001  1.0000
  O   O5561     1.0  0.75  0.5937499999999998  0.4687500000000001  1.0000
  O   O5562     1.0  0.75  0.6562499999999998  0.4687500000000001  1.0000
  O   O5563     1.0  0.75  0.7187499999999999  0.4687500000000001  1.0000
  O   O5564     1.0  0.75  0.7812499999999999  0.4687500000000001  1.0000
  O   O5565     1.0  0.75  0.8437499999999998  0.4687500000000001  1.0000
  O   O5566     1.0  0.75  0.9062499999999998  0.4687500000000001  1.0000
  O   O5567     1.0  0.75  0.9687499999999998  0.4687500000000001  1.0000
  O   O5568     1.0  0.75  0.031249999999999993  0.4687500000000001  1.0000
  O   O5569     1.0  0.7812499999999999  0.062499999999999986  0.4375000000000001  1.0000
  O   O5570     1.0  0.7812499999999999  0.12499999999999997  0.4375000000000001  1.0000
  O   O5571     1.0  0.7812499999999999  0.18749999999999997  0.4375000000000001  1.0000
  O   O5572     1.0  0.7812499999999999  0.24999999999999994  0.4375000000000001  1.0000
  O   O5573     1.0  0.7812499999999999  0.3124999999999999  0.4375000000000001  1.0000
  O   O5574     1.0  0.7812499999999999  0.3749999999999999  0.4375000000000001  1.0000
  O   O5575     1.0  0.7812499999999999  0.4374999999999999  0.4375000000000001  1.0000
  O   O5576     1.0  0.7812499999999999  0.49999999999999983  0.4375000000000001  1.0000
  O   O5577     1.0  0.7812499999999999  0.5624999999999998  0.4375000000000001  1.0000
  O   O5578     1.0  0.7812499999999999  0.625  0.4375000000000001  1.0000
  O   O5579     1.0  0.7812499999999999  0.6875  0.4375000000000001  1.0000
  O   O5580     1.0  0.7812499999999999  0.7499999999999999  0.4375000000000001  1.0000
  O   O5581     1.0  0.7812499999999999  0.8125000000000001  0.4375000000000001  1.0000
  O   O5582     1.0  0.7812499999999999  0.8749999999999998  0.4375000000000001  1.0000
  O   O5583     1.0  0.7812499999999999  0.9374999999999998  0.4375000000000001  1.0000
  O   O5584     1.0  0.7812499999999999  0.0  0.4375000000000001  1.0000
  O   O5585     1.0  0.8124999999999999  0.09374999999999999  0.40624999999999994  1.0000
  O   O5586     1.0  0.8124999999999999  0.15625  0.40624999999999994  1.0000
  O   O5587     1.0  0.8124999999999999  0.21874999999999994  0.40624999999999994  1.0000
  O   O5588     1.0  0.8124999999999999  0.28125  0.40624999999999994  1.0000
  O   O5589     1.0  0.8124999999999999  0.34375  0.40624999999999994  1.0000
  O   O5590     1.0  0.8124999999999999  0.4062499999999999  0.40624999999999994  1.0000
  O   O5591     1.0  0.8124999999999999  0.4687499999999999  0.40624999999999994  1.0000
  O   O5592     1.0  0.8124999999999999  0.5312499999999999  0.40624999999999994  1.0000
  O   O5593     1.0  0.8124999999999999  0.5937499999999998  0.40624999999999994  1.0000
  O   O5594     1.0  0.8124999999999999  0.6562499999999998  0.40624999999999994  1.0000
  O   O5595     1.0  0.8124999999999999  0.7187499999999999  0.40624999999999994  1.0000
  O   O5596     1.0  0.8124999999999999  0.7812499999999999  0.40624999999999994  1.0000
  O   O5597     1.0  0.8124999999999999  0.8437499999999998  0.40624999999999994  1.0000
  O   O5598     1.0  0.8124999999999999  0.9062499999999998  0.40624999999999994  1.0000
  O   O5599     1.0  0.8124999999999999  0.9687499999999998  0.40624999999999994  1.0000
  O   O5600     1.0  0.8124999999999999  0.031249999999999993  0.40624999999999994  1.0000
  O   O5601     1.0  0.8437500000000001  0.062499999999999986  0.37499999999999994  1.0000
  O   O5602     1.0  0.8437500000000001  0.12499999999999997  0.37499999999999994  1.0000
  O   O5603     1.0  0.8437500000000001  0.18749999999999997  0.37499999999999994  1.0000
  O   O5604     1.0  0.8437500000000001  0.24999999999999994  0.37499999999999994  1.0000
  O   O5605     1.0  0.8437500000000001  0.3124999999999999  0.37499999999999994  1.0000
  O   O5606     1.0  0.8437500000000001  0.3749999999999999  0.37499999999999994  1.0000
  O   O5607     1.0  0.8437500000000001  0.4374999999999999  0.37499999999999994  1.0000
  O   O5608     1.0  0.8437500000000001  0.4999999999999999  0.37499999999999994  1.0000
  O   O5609     1.0  0.8437500000000001  0.5625  0.37499999999999994  1.0000
  O   O5610     1.0  0.8437500000000001  0.625  0.37499999999999994  1.0000
  O   O5611     1.0  0.8437500000000001  0.6874999999999998  0.37499999999999994  1.0000
  O   O5612     1.0  0.8437500000000001  0.7499999999999999  0.37499999999999994  1.0000
  O   O5613     1.0  0.8437500000000001  0.8125000000000001  0.37499999999999994  1.0000
  O   O5614     1.0  0.8437500000000001  0.8749999999999998  0.37499999999999994  1.0000
  O   O5615     1.0  0.8437500000000001  0.9374999999999998  0.37499999999999994  1.0000
  O   O5616     1.0  0.8437500000000001  0.9999999999999999  0.37499999999999994  1.0000
  O   O5617     1.0  0.8749999999999999  0.09374999999999999  0.34375000000000006  1.0000
  O   O5618     1.0  0.8749999999999999  0.15625  0.34375000000000006  1.0000
  O   O5619     1.0  0.8749999999999999  0.21874999999999994  0.34375000000000006  1.0000
  O   O5620     1.0  0.8749999999999999  0.28125  0.34375000000000006  1.0000
  O   O5621     1.0  0.8749999999999999  0.34375  0.34375000000000006  1.0000
  O   O5622     1.0  0.8749999999999999  0.4062499999999999  0.34375000000000006  1.0000
  O   O5623     1.0  0.8749999999999999  0.4687499999999999  0.34375000000000006  1.0000
  O   O5624     1.0  0.8749999999999999  0.5312499999999999  0.34375000000000006  1.0000
  O   O5625     1.0  0.8749999999999999  0.5937499999999998  0.34375000000000006  1.0000
  O   O5626     1.0  0.8749999999999999  0.6562499999999998  0.34375000000000006  1.0000
  O   O5627     1.0  0.8749999999999999  0.7187499999999999  0.34375000000000006  1.0000
  O   O5628     1.0  0.8749999999999999  0.7812499999999999  0.34375000000000006  1.0000
  O   O5629     1.0  0.8749999999999999  0.8437499999999998  0.34375000000000006  1.0000
  O   O5630     1.0  0.8749999999999999  0.9062499999999998  0.34375000000000006  1.0000
  O   O5631     1.0  0.8749999999999999  0.9687499999999998  0.34375000000000006  1.0000
  O   O5632     1.0  0.8749999999999999  0.031249999999999993  0.34375000000000006  1.0000
  O   O5633     1.0  0.9062500000000002  0.062499999999999986  0.31250000000000006  1.0000
  O   O5634     1.0  0.9062500000000002  0.12499999999999997  0.31250000000000006  1.0000
  O   O5635     1.0  0.9062500000000002  0.18749999999999997  0.31250000000000006  1.0000
  O   O5636     1.0  0.9062500000000002  0.24999999999999983  0.31250000000000006  1.0000
  O   O5637     1.0  0.9062500000000002  0.3124999999999999  0.31250000000000006  1.0000
  O   O5638     1.0  0.9062500000000002  0.37499999999999994  0.31250000000000006  1.0000
  O   O5639     1.0  0.9062500000000002  0.4374999999999999  0.31250000000000006  1.0000
  O   O5640     1.0  0.9062500000000002  0.4999999999999999  0.31250000000000006  1.0000
  O   O5641     1.0  0.9062500000000002  0.5625  0.31250000000000006  1.0000
  O   O5642     1.0  0.9062500000000002  0.625  0.31250000000000006  1.0000
  O   O5643     1.0  0.9062500000000002  0.6874999999999998  0.31250000000000006  1.0000
  O   O5644     1.0  0.9062500000000002  0.7499999999999999  0.31250000000000006  1.0000
  O   O5645     1.0  0.9062500000000002  0.8124999999999998  0.31250000000000006  1.0000
  O   O5646     1.0  0.9062500000000002  0.8749999999999998  0.31250000000000006  1.0000
  O   O5647     1.0  0.9062500000000002  0.9374999999999998  0.31250000000000006  1.0000
  O   O5648     1.0  0.9062500000000002  0.9999999999999999  0.31250000000000006  1.0000
  O   O5649     1.0  0.9374999999999999  0.09374999999999999  0.2812499999999999  1.0000
  O   O5650     1.0  0.9374999999999999  0.15625  0.2812499999999999  1.0000
  O   O5651     1.0  0.9374999999999999  0.21874999999999994  0.2812499999999999  1.0000
  O   O5652     1.0  0.9374999999999999  0.28125  0.2812499999999999  1.0000
  O   O5653     1.0  0.9374999999999999  0.3437499999999999  0.2812499999999999  1.0000
  O   O5654     1.0  0.9374999999999999  0.4062499999999999  0.2812499999999999  1.0000
  O   O5655     1.0  0.9374999999999999  0.4687499999999999  0.2812499999999999  1.0000
  O   O5656     1.0  0.9374999999999999  0.5312499999999999  0.2812499999999999  1.0000
  O   O5657     1.0  0.9374999999999999  0.5937499999999998  0.2812499999999999  1.0000
  O   O5658     1.0  0.9374999999999999  0.6562499999999998  0.2812499999999999  1.0000
  O   O5659     1.0  0.9374999999999999  0.7187499999999999  0.2812499999999999  1.0000
  O   O5660     1.0  0.9374999999999999  0.7812499999999999  0.2812499999999999  1.0000
  O   O5661     1.0  0.9374999999999999  0.8437499999999998  0.2812499999999999  1.0000
  O   O5662     1.0  0.9374999999999999  0.9062499999999998  0.2812499999999999  1.0000
  O   O5663     1.0  0.9374999999999999  0.9687499999999998  0.2812499999999999  1.0000
  O   O5664     1.0  0.9374999999999999  0.031249999999999993  0.2812499999999999  1.0000
  O   O5665     1.0  0.9687500000000001  0.062499999999999986  0.25  1.0000
  O   O5666     1.0  0.9687500000000001  0.12499999999999997  0.25  1.0000
  O   O5667     1.0  0.9687500000000001  0.18749999999999997  0.25  1.0000
  O   O5668     1.0  0.9687500000000001  0.24999999999999983  0.25  1.0000
  O   O5669     1.0  0.9687500000000001  0.3125  0.25  1.0000
  O   O5670     1.0  0.9687500000000001  0.37499999999999994  0.25  1.0000
  O   O5671     1.0  0.9687500000000001  0.4374999999999999  0.25  1.0000
  O   O5672     1.0  0.9687500000000001  0.49999999999999983  0.25  1.0000
  O   O5673     1.0  0.9687500000000001  0.5625  0.25  1.0000
  O   O5674     1.0  0.9687500000000001  0.6249999999999998  0.25  1.0000
  O   O5675     1.0  0.9687500000000001  0.6874999999999998  0.25  1.0000
  O   O5676     1.0  0.9687500000000001  0.7499999999999999  0.25  1.0000
  O   O5677     1.0  0.9687500000000001  0.8124999999999998  0.25  1.0000
  O   O5678     1.0  0.9687500000000001  0.8749999999999998  0.25  1.0000
  O   O5679     1.0  0.9687500000000001  0.9374999999999998  0.25  1.0000
  O   O5680     1.0  0.9687500000000001  0.9999999999999999  0.25  1.0000
  O   O5681     1.0  0.0  0.09374999999999999  0.2187499999999997  1.0000
  O   O5682     1.0  0.0  0.15625  0.2187499999999997  1.0000
  O   O5683     1.0  0.0  0.21874999999999994  0.2187499999999997  1.0000
  O   O5684     1.0  0.0  0.28125  0.2187499999999997  1.0000
  O   O5685     1.0  0.0  0.3437499999999999  0.2187499999999997  1.0000
  O   O5686     1.0  0.0  0.4062499999999999  0.2187499999999997  1.0000
  O   O5687     1.0  0.0  0.4687499999999999  0.2187499999999997  1.0000
  O   O5688     1.0  0.0  0.5312499999999999  0.2187499999999997  1.0000
  O   O5689     1.0  0.0  0.59375  0.2187499999999997  1.0000
  O   O5690     1.0  0.0  0.65625  0.2187499999999997  1.0000
  O   O5691     1.0  0.0  0.7187499999999999  0.2187499999999997  1.0000
  O   O5692     1.0  0.0  0.7812499999999999  0.2187499999999997  1.0000
  O   O5693     1.0  0.0  0.8437499999999998  0.2187499999999997  1.0000
  O   O5694     1.0  0.0  0.9062499999999998  0.2187499999999997  1.0000
  O   O5695     1.0  0.0  0.9687499999999998  0.2187499999999997  1.0000
  O   O5696     1.0  0.0  0.031249999999999993  0.2187499999999997  1.0000
  O   O5697     1.0  0.28125  0.062499999999999986  0.0  1.0000
  O   O5698     1.0  0.28125  0.12499999999999997  0.0  1.0000
  O   O5699     1.0  0.28125  0.18749999999999997  0.0  1.0000
  O   O5700     1.0  0.28125  0.24999999999999994  0.0  1.0000
  O   O5701     1.0  0.28125  0.3124999999999999  0.0  1.0000
  O   O5702     1.0  0.28125  0.3749999999999999  0.0  1.0000
  O   O5703     1.0  0.28125  0.4374999999999999  0.0  1.0000
  O   O5704     1.0  0.28125  0.49999999999999983  0.0  1.0000
  O   O5705     1.0  0.28125  0.5625  0.0  1.0000
  O   O5706     1.0  0.28125  0.625  0.0  1.0000
  O   O5707     1.0  0.28125  0.6875  0.0  1.0000
  O   O5708     1.0  0.28125  0.7499999999999999  0.0  1.0000
  O   O5709     1.0  0.28125  0.8124999999999998  0.0  1.0000
  O   O5710     1.0  0.28125  0.8750000000000001  0.0  1.0000
  O   O5711     1.0  0.28125  0.9374999999999998  0.0  1.0000
  O   O5712     1.0  0.28125  0.0  0.0  1.0000
  O   O5713     1.0  0.3125  0.09374999999999999  0.9687500000000001  1.0000
  O   O5714     1.0  0.3125  0.15625  0.9687500000000001  1.0000
  O   O5715     1.0  0.3125  0.21874999999999994  0.9687500000000001  1.0000
  O   O5716     1.0  0.3125  0.28125  0.9687500000000001  1.0000
  O   O5717     1.0  0.3125  0.34375  0.9687500000000001  1.0000
  O   O5718     1.0  0.3125  0.4062499999999999  0.9687500000000001  1.0000
  O   O5719     1.0  0.3125  0.4687499999999999  0.9687500000000001  1.0000
  O   O5720     1.0  0.3125  0.5312499999999999  0.9687500000000001  1.0000
  O   O5721     1.0  0.3125  0.5937499999999998  0.9687500000000001  1.0000
  O   O5722     1.0  0.3125  0.6562499999999998  0.9687500000000001  1.0000
  O   O5723     1.0  0.3125  0.7187499999999999  0.9687500000000001  1.0000
  O   O5724     1.0  0.3125  0.7812499999999999  0.9687500000000001  1.0000
  O   O5725     1.0  0.3125  0.8437499999999998  0.9687500000000001  1.0000
  O   O5726     1.0  0.3125  0.9062499999999998  0.9687500000000001  1.0000
  O   O5727     1.0  0.3125  0.9687499999999998  0.9687500000000001  1.0000
  O   O5728     1.0  0.3125  0.031249999999999993  0.9687500000000001  1.0000
  O   O5729     1.0  0.34375  0.062499999999999986  0.9375000000000001  1.0000
  O   O5730     1.0  0.34375  0.12499999999999997  0.9375000000000001  1.0000
  O   O5731     1.0  0.34375  0.18749999999999997  0.9375000000000001  1.0000
  O   O5732     1.0  0.34375  0.24999999999999994  0.9375000000000001  1.0000
  O   O5733     1.0  0.34375  0.3124999999999999  0.9375000000000001  1.0000
  O   O5734     1.0  0.34375  0.3749999999999999  0.9375000000000001  1.0000
  O   O5735     1.0  0.34375  0.4374999999999999  0.9375000000000001  1.0000
  O   O5736     1.0  0.34375  0.49999999999999983  0.9375000000000001  1.0000
  O   O5737     1.0  0.34375  0.5625  0.9375000000000001  1.0000
  O   O5738     1.0  0.34375  0.625  0.9375000000000001  1.0000
  O   O5739     1.0  0.34375  0.6875  0.9375000000000001  1.0000
  O   O5740     1.0  0.34375  0.7499999999999999  0.9375000000000001  1.0000
  O   O5741     1.0  0.34375  0.8124999999999998  0.9375000000000001  1.0000
  O   O5742     1.0  0.34375  0.8749999999999998  0.9375000000000001  1.0000
  O   O5743     1.0  0.34375  0.9374999999999998  0.9375000000000001  1.0000
  O   O5744     1.0  0.34375  0.0  0.9375000000000001  1.0000
  O   O5745     1.0  0.375  0.09374999999999999  0.9062500000000001  1.0000
  O   O5746     1.0  0.375  0.15625  0.9062500000000001  1.0000
  O   O5747     1.0  0.375  0.21874999999999994  0.9062500000000001  1.0000
  O   O5748     1.0  0.375  0.28125  0.9062500000000001  1.0000
  O   O5749     1.0  0.375  0.34375  0.9062500000000001  1.0000
  O   O5750     1.0  0.375  0.4062499999999999  0.9062500000000001  1.0000
  O   O5751     1.0  0.375  0.4687499999999999  0.9062500000000001  1.0000
  O   O5752     1.0  0.375  0.5312499999999999  0.9062500000000001  1.0000
  O   O5753     1.0  0.375  0.5937499999999998  0.9062500000000001  1.0000
  O   O5754     1.0  0.375  0.6562499999999998  0.9062500000000001  1.0000
  O   O5755     1.0  0.375  0.7187499999999999  0.9062500000000001  1.0000
  O   O5756     1.0  0.375  0.7812499999999999  0.9062500000000001  1.0000
  O   O5757     1.0  0.375  0.8437499999999998  0.9062500000000001  1.0000
  O   O5758     1.0  0.375  0.9062499999999998  0.9062500000000001  1.0000
  O   O5759     1.0  0.375  0.9687499999999998  0.9062500000000001  1.0000
  O   O5760     1.0  0.375  0.031249999999999993  0.9062500000000001  1.0000
  O   O5761     1.0  0.4062499999999999  0.062499999999999986  0.875  1.0000
  O   O5762     1.0  0.4062499999999999  0.12499999999999997  0.875  1.0000
  O   O5763     1.0  0.4062499999999999  0.18749999999999997  0.875  1.0000
  O   O5764     1.0  0.4062499999999999  0.24999999999999983  0.875  1.0000
  O   O5765     1.0  0.4062499999999999  0.3124999999999999  0.875  1.0000
  O   O5766     1.0  0.4062499999999999  0.37499999999999994  0.875  1.0000
  O   O5767     1.0  0.4062499999999999  0.4374999999999999  0.875  1.0000
  O   O5768     1.0  0.4062499999999999  0.4999999999999999  0.875  1.0000
  O   O5769     1.0  0.4062499999999999  0.5625  0.875  1.0000
  O   O5770     1.0  0.4062499999999999  0.625  0.875  1.0000
  O   O5771     1.0  0.4062499999999999  0.6875  0.875  1.0000
  O   O5772     1.0  0.4062499999999999  0.7500000000000001  0.875  1.0000
  O   O5773     1.0  0.4062499999999999  0.8124999999999998  0.875  1.0000
  O   O5774     1.0  0.4062499999999999  0.8749999999999998  0.875  1.0000
  O   O5775     1.0  0.4062499999999999  0.9374999999999998  0.875  1.0000
  O   O5776     1.0  0.4062499999999999  0.0  0.875  1.0000
  O   O5777     1.0  0.4374999999999999  0.09374999999999999  0.84375  1.0000
  O   O5778     1.0  0.4374999999999999  0.15625  0.84375  1.0000
  O   O5779     1.0  0.4374999999999999  0.21874999999999994  0.84375  1.0000
  O   O5780     1.0  0.4374999999999999  0.28125  0.84375  1.0000
  O   O5781     1.0  0.4374999999999999  0.3437499999999999  0.84375  1.0000
  O   O5782     1.0  0.4374999999999999  0.4062499999999999  0.84375  1.0000
  O   O5783     1.0  0.4374999999999999  0.4687499999999999  0.84375  1.0000
  O   O5784     1.0  0.4374999999999999  0.5312499999999999  0.84375  1.0000
  O   O5785     1.0  0.4374999999999999  0.5937499999999998  0.84375  1.0000
  O   O5786     1.0  0.4374999999999999  0.65625  0.84375  1.0000
  O   O5787     1.0  0.4374999999999999  0.7187499999999999  0.84375  1.0000
  O   O5788     1.0  0.4374999999999999  0.7812499999999999  0.84375  1.0000
  O   O5789     1.0  0.4374999999999999  0.8437499999999998  0.84375  1.0000
  O   O5790     1.0  0.4374999999999999  0.9062499999999998  0.84375  1.0000
  O   O5791     1.0  0.4374999999999999  0.9687499999999998  0.84375  1.0000
  O   O5792     1.0  0.4374999999999999  0.031249999999999993  0.84375  1.0000
  O   O5793     1.0  0.46875  0.062499999999999986  0.8125  1.0000
  O   O5794     1.0  0.46875  0.12499999999999997  0.8125  1.0000
  O   O5795     1.0  0.46875  0.18749999999999997  0.8125  1.0000
  O   O5796     1.0  0.46875  0.24999999999999983  0.8125  1.0000
  O   O5797     1.0  0.46875  0.3125  0.8125  1.0000
  O   O5798     1.0  0.46875  0.37499999999999994  0.8125  1.0000
  O   O5799     1.0  0.46875  0.4374999999999999  0.8125  1.0000
  O   O5800     1.0  0.46875  0.49999999999999983  0.8125  1.0000
  O   O5801     1.0  0.46875  0.5625  0.8125  1.0000
  O   O5802     1.0  0.46875  0.6249999999999998  0.8125  1.0000
  O   O5803     1.0  0.46875  0.6875  0.8125  1.0000
  O   O5804     1.0  0.46875  0.7500000000000001  0.8125  1.0000
  O   O5805     1.0  0.46875  0.8124999999999998  0.8125  1.0000
  O   O5806     1.0  0.46875  0.8749999999999998  0.8125  1.0000
  O   O5807     1.0  0.46875  0.9374999999999998  0.8125  1.0000
  O   O5808     1.0  0.46875  0.0  0.8125  1.0000
  O   O5809     1.0  0.49999999999999994  0.09374999999999999  0.78125  1.0000
  O   O5810     1.0  0.49999999999999994  0.15625  0.78125  1.0000
  O   O5811     1.0  0.49999999999999994  0.21874999999999994  0.78125  1.0000
  O   O5812     1.0  0.49999999999999994  0.28125  0.78125  1.0000
  O   O5813     1.0  0.49999999999999994  0.3437499999999999  0.78125  1.0000
  O   O5814     1.0  0.49999999999999994  0.4062499999999999  0.78125  1.0000
  O   O5815     1.0  0.49999999999999994  0.4687499999999999  0.78125  1.0000
  O   O5816     1.0  0.49999999999999994  0.5312499999999999  0.78125  1.0000
  O   O5817     1.0  0.49999999999999994  0.5937499999999998  0.78125  1.0000
  O   O5818     1.0  0.49999999999999994  0.65625  0.78125  1.0000
  O   O5819     1.0  0.49999999999999994  0.7187499999999999  0.78125  1.0000
  O   O5820     1.0  0.49999999999999994  0.7812499999999999  0.78125  1.0000
  O   O5821     1.0  0.49999999999999994  0.8437500000000001  0.78125  1.0000
  O   O5822     1.0  0.49999999999999994  0.9062499999999998  0.78125  1.0000
  O   O5823     1.0  0.49999999999999994  0.9687499999999998  0.78125  1.0000
  O   O5824     1.0  0.49999999999999994  0.031249999999999993  0.78125  1.0000
  O   O5825     1.0  0.53125  0.062499999999999986  0.75  1.0000
  O   O5826     1.0  0.53125  0.12499999999999997  0.75  1.0000
  O   O5827     1.0  0.53125  0.18749999999999997  0.75  1.0000
  O   O5828     1.0  0.53125  0.24999999999999994  0.75  1.0000
  O   O5829     1.0  0.53125  0.3125  0.75  1.0000
  O   O5830     1.0  0.53125  0.37499999999999994  0.75  1.0000
  O   O5831     1.0  0.53125  0.4374999999999999  0.75  1.0000
  O   O5832     1.0  0.53125  0.49999999999999983  0.75  1.0000
  O   O5833     1.0  0.53125  0.5624999999999998  0.75  1.0000
  O   O5834     1.0  0.53125  0.6249999999999998  0.75  1.0000
  O   O5835     1.0  0.53125  0.6875  0.75  1.0000
  O   O5836     1.0  0.53125  0.7499999999999999  0.75  1.0000
  O   O5837     1.0  0.53125  0.8124999999999998  0.75  1.0000
  O   O5838     1.0  0.53125  0.8749999999999998  0.75  1.0000
  O   O5839     1.0  0.53125  0.9374999999999998  0.75  1.0000
  O   O5840     1.0  0.53125  0.0  0.75  1.0000
  O   O5841     1.0  0.5625  0.09374999999999999  0.71875  1.0000
  O   O5842     1.0  0.5625  0.15625  0.71875  1.0000
  O   O5843     1.0  0.5625  0.21874999999999994  0.71875  1.0000
  O   O5844     1.0  0.5625  0.2812499999999999  0.71875  1.0000
  O   O5845     1.0  0.5625  0.3437499999999999  0.71875  1.0000
  O   O5846     1.0  0.5625  0.4062499999999999  0.71875  1.0000
  O   O5847     1.0  0.5625  0.4687499999999999  0.71875  1.0000
  O   O5848     1.0  0.5625  0.53125  0.71875  1.0000
  O   O5849     1.0  0.5625  0.59375  0.71875  1.0000
  O   O5850     1.0  0.5625  0.65625  0.71875  1.0000
  O   O5851     1.0  0.5625  0.7187499999999999  0.71875  1.0000
  O   O5852     1.0  0.5625  0.7812499999999999  0.71875  1.0000
  O   O5853     1.0  0.5625  0.8437500000000001  0.71875  1.0000
  O   O5854     1.0  0.5625  0.9062499999999998  0.71875  1.0000
  O   O5855     1.0  0.5625  0.9687499999999998  0.71875  1.0000
  O   O5856     1.0  0.5625  0.031249999999999993  0.71875  1.0000
  O   O5857     1.0  0.5937499999999999  0.062499999999999986  0.6875000000000001  1.0000
  O   O5858     1.0  0.5937499999999999  0.12499999999999997  0.6875000000000001  1.0000
  O   O5859     1.0  0.5937499999999999  0.18749999999999997  0.6875000000000001  1.0000
  O   O5860     1.0  0.5937499999999999  0.24999999999999994  0.6875000000000001  1.0000
  O   O5861     1.0  0.5937499999999999  0.3125  0.6875000000000001  1.0000
  O   O5862     1.0  0.5937499999999999  0.37499999999999994  0.6875000000000001  1.0000
  O   O5863     1.0  0.5937499999999999  0.4374999999999999  0.6875000000000001  1.0000
  O   O5864     1.0  0.5937499999999999  0.49999999999999983  0.6875000000000001  1.0000
  O   O5865     1.0  0.5937499999999999  0.5624999999999998  0.6875000000000001  1.0000
  O   O5866     1.0  0.5937499999999999  0.6249999999999998  0.6875000000000001  1.0000
  O   O5867     1.0  0.5937499999999999  0.6875  0.6875000000000001  1.0000
  O   O5868     1.0  0.5937499999999999  0.7499999999999999  0.6875000000000001  1.0000
  O   O5869     1.0  0.5937499999999999  0.8124999999999998  0.6875000000000001  1.0000
  O   O5870     1.0  0.5937499999999999  0.8749999999999998  0.6875000000000001  1.0000
  O   O5871     1.0  0.5937499999999999  0.9374999999999998  0.6875000000000001  1.0000
  O   O5872     1.0  0.5937499999999999  0.0  0.6875000000000001  1.0000
  O   O5873     1.0  0.6250000000000002  0.09374999999999999  0.6562500000000001  1.0000
  O   O5874     1.0  0.6250000000000002  0.15625  0.6562500000000001  1.0000
  O   O5875     1.0  0.6250000000000002  0.21874999999999994  0.6562500000000001  1.0000
  O   O5876     1.0  0.6250000000000002  0.2812499999999999  0.6562500000000001  1.0000
  O   O5877     1.0  0.6250000000000002  0.3437499999999999  0.6562500000000001  1.0000
  O   O5878     1.0  0.6250000000000002  0.4062499999999999  0.6562500000000001  1.0000
  O   O5879     1.0  0.6250000000000002  0.4687499999999999  0.6562500000000001  1.0000
  O   O5880     1.0  0.6250000000000002  0.53125  0.6562500000000001  1.0000
  O   O5881     1.0  0.6250000000000002  0.59375  0.6562500000000001  1.0000
  O   O5882     1.0  0.6250000000000002  0.6562499999999998  0.6562500000000001  1.0000
  O   O5883     1.0  0.6250000000000002  0.7187499999999999  0.6562500000000001  1.0000
  O   O5884     1.0  0.6250000000000002  0.7812499999999999  0.6562500000000001  1.0000
  O   O5885     1.0  0.6250000000000002  0.8437499999999998  0.6562500000000001  1.0000
  O   O5886     1.0  0.6250000000000002  0.9062499999999998  0.6562500000000001  1.0000
  O   O5887     1.0  0.6250000000000002  0.9687499999999998  0.6562500000000001  1.0000
  O   O5888     1.0  0.6250000000000002  0.031249999999999993  0.6562500000000001  1.0000
  O   O5889     1.0  0.65625  0.062499999999999986  0.6250000000000001  1.0000
  O   O5890     1.0  0.65625  0.12499999999999997  0.6250000000000001  1.0000
  O   O5891     1.0  0.65625  0.18749999999999997  0.6250000000000001  1.0000
  O   O5892     1.0  0.65625  0.24999999999999994  0.6250000000000001  1.0000
  O   O5893     1.0  0.65625  0.3125  0.6250000000000001  1.0000
  O   O5894     1.0  0.65625  0.3749999999999999  0.6250000000000001  1.0000
  O   O5895     1.0  0.65625  0.4374999999999999  0.6250000000000001  1.0000
  O   O5896     1.0  0.65625  0.49999999999999983  0.6250000000000001  1.0000
  O   O5897     1.0  0.65625  0.5624999999999998  0.6250000000000001  1.0000
  O   O5898     1.0  0.65625  0.6249999999999998  0.6250000000000001  1.0000
  O   O5899     1.0  0.65625  0.6875  0.6250000000000001  1.0000
  O   O5900     1.0  0.65625  0.7499999999999999  0.6250000000000001  1.0000
  O   O5901     1.0  0.65625  0.8124999999999998  0.6250000000000001  1.0000
  O   O5902     1.0  0.65625  0.8749999999999998  0.6250000000000001  1.0000
  O   O5903     1.0  0.65625  0.9374999999999998  0.6250000000000001  1.0000
  O   O5904     1.0  0.65625  0.0  0.6250000000000001  1.0000
  O   O5905     1.0  0.6875000000000002  0.09374999999999999  0.5937500000000001  1.0000
  O   O5906     1.0  0.6875000000000002  0.15625  0.5937500000000001  1.0000
  O   O5907     1.0  0.6875000000000002  0.21874999999999994  0.5937500000000001  1.0000
  O   O5908     1.0  0.6875000000000002  0.2812499999999999  0.5937500000000001  1.0000
  O   O5909     1.0  0.6875000000000002  0.34375  0.5937500000000001  1.0000
  O   O5910     1.0  0.6875000000000002  0.4062499999999999  0.5937500000000001  1.0000
  O   O5911     1.0  0.6875000000000002  0.4687499999999999  0.5937500000000001  1.0000
  O   O5912     1.0  0.6875000000000002  0.53125  0.5937500000000001  1.0000
  O   O5913     1.0  0.6875000000000002  0.59375  0.5937500000000001  1.0000
  O   O5914     1.0  0.6875000000000002  0.6562499999999998  0.5937500000000001  1.0000
  O   O5915     1.0  0.6875000000000002  0.7187499999999999  0.5937500000000001  1.0000
  O   O5916     1.0  0.6875000000000002  0.7812499999999999  0.5937500000000001  1.0000
  O   O5917     1.0  0.6875000000000002  0.8437499999999998  0.5937500000000001  1.0000
  O   O5918     1.0  0.6875000000000002  0.9062499999999998  0.5937500000000001  1.0000
  O   O5919     1.0  0.6875000000000002  0.9687499999999998  0.5937500000000001  1.0000
  O   O5920     1.0  0.6875000000000002  0.031249999999999993  0.5937500000000001  1.0000
  O   O5921     1.0  0.71875  0.062499999999999986  0.5625000000000001  1.0000
  O   O5922     1.0  0.71875  0.12499999999999997  0.5625000000000001  1.0000
  O   O5923     1.0  0.71875  0.18749999999999997  0.5625000000000001  1.0000
  O   O5924     1.0  0.71875  0.24999999999999994  0.5625000000000001  1.0000
  O   O5925     1.0  0.71875  0.3124999999999999  0.5625000000000001  1.0000
  O   O5926     1.0  0.71875  0.3749999999999999  0.5625000000000001  1.0000
  O   O5927     1.0  0.71875  0.4374999999999999  0.5625000000000001  1.0000
  O   O5928     1.0  0.71875  0.49999999999999983  0.5625000000000001  1.0000
  O   O5929     1.0  0.71875  0.5624999999999998  0.5625000000000001  1.0000
  O   O5930     1.0  0.71875  0.625  0.5625000000000001  1.0000
  O   O5931     1.0  0.71875  0.6875  0.5625000000000001  1.0000
  O   O5932     1.0  0.71875  0.7499999999999999  0.5625000000000001  1.0000
  O   O5933     1.0  0.71875  0.8124999999999998  0.5625000000000001  1.0000
  O   O5934     1.0  0.71875  0.8749999999999998  0.5625000000000001  1.0000
  O   O5935     1.0  0.71875  0.9374999999999998  0.5625000000000001  1.0000
  O   O5936     1.0  0.71875  0.0  0.5625000000000001  1.0000
  O   O5937     1.0  0.75  0.09374999999999999  0.53125  1.0000
  O   O5938     1.0  0.75  0.15625  0.53125  1.0000
  O   O5939     1.0  0.75  0.21874999999999994  0.53125  1.0000
  O   O5940     1.0  0.75  0.28125  0.53125  1.0000
  O   O5941     1.0  0.75  0.34375  0.53125  1.0000
  O   O5942     1.0  0.75  0.4062499999999999  0.53125  1.0000
  O   O5943     1.0  0.75  0.4687499999999999  0.53125  1.0000
  O   O5944     1.0  0.75  0.53125  0.53125  1.0000
  O   O5945     1.0  0.75  0.5937499999999998  0.53125  1.0000
  O   O5946     1.0  0.75  0.6562499999999998  0.53125  1.0000
  O   O5947     1.0  0.75  0.7187499999999999  0.53125  1.0000
  O   O5948     1.0  0.75  0.7812499999999999  0.53125  1.0000
  O   O5949     1.0  0.75  0.8437499999999998  0.53125  1.0000
  O   O5950     1.0  0.75  0.9062499999999998  0.53125  1.0000
  O   O5951     1.0  0.75  0.9687499999999998  0.53125  1.0000
  O   O5952     1.0  0.75  0.031249999999999993  0.53125  1.0000
  O   O5953     1.0  0.7812499999999999  0.062499999999999986  0.5  1.0000
  O   O5954     1.0  0.7812499999999999  0.12499999999999997  0.5  1.0000
  O   O5955     1.0  0.7812499999999999  0.18749999999999997  0.5  1.0000
  O   O5956     1.0  0.7812499999999999  0.24999999999999994  0.5  1.0000
  O   O5957     1.0  0.7812499999999999  0.3124999999999999  0.5  1.0000
  O   O5958     1.0  0.7812499999999999  0.3749999999999999  0.5  1.0000
  O   O5959     1.0  0.7812499999999999  0.4374999999999999  0.5  1.0000
  O   O5960     1.0  0.7812499999999999  0.49999999999999983  0.5  1.0000
  O   O5961     1.0  0.7812499999999999  0.5624999999999998  0.5  1.0000
  O   O5962     1.0  0.7812499999999999  0.625  0.5  1.0000
  O   O5963     1.0  0.7812499999999999  0.6875  0.5  1.0000
  O   O5964     1.0  0.7812499999999999  0.7499999999999999  0.5  1.0000
  O   O5965     1.0  0.7812499999999999  0.8125000000000001  0.5  1.0000
  O   O5966     1.0  0.7812499999999999  0.8749999999999998  0.5  1.0000
  O   O5967     1.0  0.7812499999999999  0.9374999999999998  0.5  1.0000
  O   O5968     1.0  0.7812499999999999  0.0  0.5  1.0000
  O   O5969     1.0  0.8124999999999999  0.09374999999999999  0.4687500000000001  1.0000
  O   O5970     1.0  0.8124999999999999  0.15625  0.4687500000000001  1.0000
  O   O5971     1.0  0.8124999999999999  0.21874999999999994  0.4687500000000001  1.0000
  O   O5972     1.0  0.8124999999999999  0.28125  0.4687500000000001  1.0000
  O   O5973     1.0  0.8124999999999999  0.34375  0.4687500000000001  1.0000
  O   O5974     1.0  0.8124999999999999  0.4062499999999999  0.4687500000000001  1.0000
  O   O5975     1.0  0.8124999999999999  0.4687499999999999  0.4687500000000001  1.0000
  O   O5976     1.0  0.8124999999999999  0.5312499999999999  0.4687500000000001  1.0000
  O   O5977     1.0  0.8124999999999999  0.5937499999999998  0.4687500000000001  1.0000
  O   O5978     1.0  0.8124999999999999  0.6562499999999998  0.4687500000000001  1.0000
  O   O5979     1.0  0.8124999999999999  0.7187499999999999  0.4687500000000001  1.0000
  O   O5980     1.0  0.8124999999999999  0.7812499999999999  0.4687500000000001  1.0000
  O   O5981     1.0  0.8124999999999999  0.8437499999999998  0.4687500000000001  1.0000
  O   O5982     1.0  0.8124999999999999  0.9062499999999998  0.4687500000000001  1.0000
  O   O5983     1.0  0.8124999999999999  0.9687499999999998  0.4687500000000001  1.0000
  O   O5984     1.0  0.8124999999999999  0.031249999999999993  0.4687500000000001  1.0000
  O   O5985     1.0  0.8437500000000001  0.062499999999999986  0.4375000000000001  1.0000
  O   O5986     1.0  0.8437500000000001  0.12499999999999997  0.4375000000000001  1.0000
  O   O5987     1.0  0.8437500000000001  0.18749999999999997  0.4375000000000001  1.0000
  O   O5988     1.0  0.8437500000000001  0.24999999999999994  0.4375000000000001  1.0000
  O   O5989     1.0  0.8437500000000001  0.3124999999999999  0.4375000000000001  1.0000
  O   O5990     1.0  0.8437500000000001  0.3749999999999999  0.4375000000000001  1.0000
  O   O5991     1.0  0.8437500000000001  0.4374999999999999  0.4375000000000001  1.0000
  O   O5992     1.0  0.8437500000000001  0.4999999999999999  0.4375000000000001  1.0000
  O   O5993     1.0  0.8437500000000001  0.5625  0.4375000000000001  1.0000
  O   O5994     1.0  0.8437500000000001  0.625  0.4375000000000001  1.0000
  O   O5995     1.0  0.8437500000000001  0.6874999999999998  0.4375000000000001  1.0000
  O   O5996     1.0  0.8437500000000001  0.7499999999999999  0.4375000000000001  1.0000
  O   O5997     1.0  0.8437500000000001  0.8125000000000001  0.4375000000000001  1.0000
  O   O5998     1.0  0.8437500000000001  0.8749999999999998  0.4375000000000001  1.0000
  O   O5999     1.0  0.8437500000000001  0.9374999999999998  0.4375000000000001  1.0000
  O   O6000     1.0  0.8437500000000001  0.9999999999999999  0.4375000000000001  1.0000
  O   O6001     1.0  0.8749999999999999  0.09374999999999999  0.40625000000000017  1.0000
  O   O6002     1.0  0.8749999999999999  0.15625  0.40625000000000017  1.0000
  O   O6003     1.0  0.8749999999999999  0.21874999999999994  0.40625000000000017  1.0000
  O   O6004     1.0  0.8749999999999999  0.28125  0.40625000000000017  1.0000
  O   O6005     1.0  0.8749999999999999  0.34375  0.40625000000000017  1.0000
  O   O6006     1.0  0.8749999999999999  0.4062499999999999  0.40625000000000017  1.0000
  O   O6007     1.0  0.8749999999999999  0.4687499999999999  0.40625000000000017  1.0000
  O   O6008     1.0  0.8749999999999999  0.5312499999999999  0.40625000000000017  1.0000
  O   O6009     1.0  0.8749999999999999  0.5937499999999998  0.40625000000000017  1.0000
  O   O6010     1.0  0.8749999999999999  0.6562499999999998  0.40625000000000017  1.0000
  O   O6011     1.0  0.8749999999999999  0.7187499999999999  0.40625000000000017  1.0000
  O   O6012     1.0  0.8749999999999999  0.7812499999999999  0.40625000000000017  1.0000
  O   O6013     1.0  0.8749999999999999  0.8437499999999998  0.40625000000000017  1.0000
  O   O6014     1.0  0.8749999999999999  0.9062499999999998  0.40625000000000017  1.0000
  O   O6015     1.0  0.8749999999999999  0.9687499999999998  0.40625000000000017  1.0000
  O   O6016     1.0  0.8749999999999999  0.031249999999999993  0.40625000000000017  1.0000
  O   O6017     1.0  0.9062500000000001  0.062499999999999986  0.37499999999999994  1.0000
  O   O6018     1.0  0.9062500000000001  0.12499999999999997  0.37499999999999994  1.0000
  O   O6019     1.0  0.9062500000000001  0.18749999999999997  0.37499999999999994  1.0000
  O   O6020     1.0  0.9062500000000001  0.24999999999999983  0.37499999999999994  1.0000
  O   O6021     1.0  0.9062500000000001  0.3124999999999999  0.37499999999999994  1.0000
  O   O6022     1.0  0.9062500000000001  0.37499999999999994  0.37499999999999994  1.0000
  O   O6023     1.0  0.9062500000000001  0.4374999999999999  0.37499999999999994  1.0000
  O   O6024     1.0  0.9062500000000001  0.4999999999999999  0.37499999999999994  1.0000
  O   O6025     1.0  0.9062500000000001  0.5625  0.37499999999999994  1.0000
  O   O6026     1.0  0.9062500000000001  0.625  0.37499999999999994  1.0000
  O   O6027     1.0  0.9062500000000001  0.6874999999999998  0.37499999999999994  1.0000
  O   O6028     1.0  0.9062500000000001  0.7499999999999999  0.37499999999999994  1.0000
  O   O6029     1.0  0.9062500000000001  0.8124999999999998  0.37499999999999994  1.0000
  O   O6030     1.0  0.9062500000000001  0.8749999999999998  0.37499999999999994  1.0000
  O   O6031     1.0  0.9062500000000001  0.9374999999999998  0.37499999999999994  1.0000
  O   O6032     1.0  0.9062500000000001  0.9999999999999999  0.37499999999999994  1.0000
  O   O6033     1.0  0.9375  0.09374999999999999  0.34375000000000006  1.0000
  O   O6034     1.0  0.9375  0.15625  0.34375000000000006  1.0000
  O   O6035     1.0  0.9375  0.21874999999999994  0.34375000000000006  1.0000
  O   O6036     1.0  0.9375  0.28125  0.34375000000000006  1.0000
  O   O6037     1.0  0.9375  0.3437499999999999  0.34375000000000006  1.0000
  O   O6038     1.0  0.9375  0.4062499999999999  0.34375000000000006  1.0000
  O   O6039     1.0  0.9375  0.4687499999999999  0.34375000000000006  1.0000
  O   O6040     1.0  0.9375  0.5312499999999999  0.34375000000000006  1.0000
  O   O6041     1.0  0.9375  0.5937499999999998  0.34375000000000006  1.0000
  O   O6042     1.0  0.9375  0.6562499999999998  0.34375000000000006  1.0000
  O   O6043     1.0  0.9375  0.7187499999999999  0.34375000000000006  1.0000
  O   O6044     1.0  0.9375  0.7812499999999999  0.34375000000000006  1.0000
  O   O6045     1.0  0.9375  0.8437499999999998  0.34375000000000006  1.0000
  O   O6046     1.0  0.9375  0.9062499999999998  0.34375000000000006  1.0000
  O   O6047     1.0  0.9375  0.9687499999999998  0.34375000000000006  1.0000
  O   O6048     1.0  0.9375  0.031249999999999993  0.34375000000000006  1.0000
  O   O6049     1.0  0.9687500000000001  0.062499999999999986  0.31250000000000006  1.0000
  O   O6050     1.0  0.9687500000000001  0.12499999999999997  0.31250000000000006  1.0000
  O   O6051     1.0  0.9687500000000001  0.18749999999999997  0.31250000000000006  1.0000
  O   O6052     1.0  0.9687500000000001  0.24999999999999983  0.31250000000000006  1.0000
  O   O6053     1.0  0.9687500000000001  0.3125  0.31250000000000006  1.0000
  O   O6054     1.0  0.9687500000000001  0.37499999999999994  0.31250000000000006  1.0000
  O   O6055     1.0  0.9687500000000001  0.4374999999999999  0.31250000000000006  1.0000
  O   O6056     1.0  0.9687500000000001  0.49999999999999983  0.31250000000000006  1.0000
  O   O6057     1.0  0.9687500000000001  0.5625  0.31250000000000006  1.0000
  O   O6058     1.0  0.9687500000000001  0.6249999999999998  0.31250000000000006  1.0000
  O   O6059     1.0  0.9687500000000001  0.6874999999999998  0.31250000000000006  1.0000
  O   O6060     1.0  0.9687500000000001  0.7499999999999999  0.31250000000000006  1.0000
  O   O6061     1.0  0.9687500000000001  0.8124999999999998  0.31250000000000006  1.0000
  O   O6062     1.0  0.9687500000000001  0.8749999999999998  0.31250000000000006  1.0000
  O   O6063     1.0  0.9687500000000001  0.9374999999999998  0.31250000000000006  1.0000
  O   O6064     1.0  0.9687500000000001  0.9999999999999999  0.31250000000000006  1.0000
  O   O6065     1.0  0.9999999999999999  0.09374999999999999  0.2812499999999999  1.0000
  O   O6066     1.0  0.9999999999999999  0.15625  0.2812499999999999  1.0000
  O   O6067     1.0  0.9999999999999999  0.21874999999999994  0.2812499999999999  1.0000
  O   O6068     1.0  0.9999999999999999  0.28125  0.2812499999999999  1.0000
  O   O6069     1.0  0.9999999999999999  0.3437499999999999  0.2812499999999999  1.0000
  O   O6070     1.0  0.9999999999999999  0.4062499999999999  0.2812499999999999  1.0000
  O   O6071     1.0  0.9999999999999999  0.4687499999999999  0.2812499999999999  1.0000
  O   O6072     1.0  0.9999999999999999  0.5312499999999999  0.2812499999999999  1.0000
  O   O6073     1.0  0.9999999999999999  0.59375  0.2812499999999999  1.0000
  O   O6074     1.0  0.9999999999999999  0.65625  0.2812499999999999  1.0000
  O   O6075     1.0  0.9999999999999999  0.7187499999999999  0.2812499999999999  1.0000
  O   O6076     1.0  0.9999999999999999  0.7812499999999999  0.2812499999999999  1.0000
  O   O6077     1.0  0.9999999999999999  0.8437499999999998  0.2812499999999999  1.0000
  O   O6078     1.0  0.9999999999999999  0.9062499999999998  0.2812499999999999  1.0000
  O   O6079     1.0  0.9999999999999999  0.9687499999999998  0.2812499999999999  1.0000
  O   O6080     1.0  0.9999999999999999  0.031249999999999993  0.2812499999999999  1.0000
  O   O6081     1.0  0.3437500000000001  0.062499999999999986  0.0  1.0000
  O   O6082     1.0  0.3437500000000001  0.12499999999999997  0.0  1.0000
  O   O6083     1.0  0.3437500000000001  0.18749999999999997  0.0  1.0000
  O   O6084     1.0  0.3437500000000001  0.24999999999999994  0.0  1.0000
  O   O6085     1.0  0.3437500000000001  0.3124999999999999  0.0  1.0000
  O   O6086     1.0  0.3437500000000001  0.3749999999999999  0.0  1.0000
  O   O6087     1.0  0.3437500000000001  0.4374999999999999  0.0  1.0000
  O   O6088     1.0  0.3437500000000001  0.49999999999999983  0.0  1.0000
  O   O6089     1.0  0.3437500000000001  0.5625  0.0  1.0000
  O   O6090     1.0  0.3437500000000001  0.625  0.0  1.0000
  O   O6091     1.0  0.3437500000000001  0.6875  0.0  1.0000
  O   O6092     1.0  0.3437500000000001  0.7499999999999999  0.0  1.0000
  O   O6093     1.0  0.3437500000000001  0.8124999999999998  0.0  1.0000
  O   O6094     1.0  0.3437500000000001  0.8749999999999998  0.0  1.0000
  O   O6095     1.0  0.3437500000000001  0.9374999999999998  0.0  1.0000
  O   O6096     1.0  0.3437500000000001  0.0  0.0  1.0000
  O   O6097     1.0  0.375  0.09374999999999999  0.9687500000000001  1.0000
  O   O6098     1.0  0.375  0.15625  0.9687500000000001  1.0000
  O   O6099     1.0  0.375  0.21874999999999994  0.9687500000000001  1.0000
  O   O6100     1.0  0.375  0.28125  0.9687500000000001  1.0000
  O   O6101     1.0  0.375  0.34375  0.9687500000000001  1.0000
  O   O6102     1.0  0.375  0.4062499999999999  0.9687500000000001  1.0000
  O   O6103     1.0  0.375  0.4687499999999999  0.9687500000000001  1.0000
  O   O6104     1.0  0.375  0.5312499999999999  0.9687500000000001  1.0000
  O   O6105     1.0  0.375  0.5937499999999998  0.9687500000000001  1.0000
  O   O6106     1.0  0.375  0.6562499999999998  0.9687500000000001  1.0000
  O   O6107     1.0  0.375  0.7187499999999999  0.9687500000000001  1.0000
  O   O6108     1.0  0.375  0.7812499999999999  0.9687500000000001  1.0000
  O   O6109     1.0  0.375  0.8437499999999998  0.9687500000000001  1.0000
  O   O6110     1.0  0.375  0.9062499999999998  0.9687500000000001  1.0000
  O   O6111     1.0  0.375  0.9687499999999998  0.9687500000000001  1.0000
  O   O6112     1.0  0.375  0.031249999999999993  0.9687500000000001  1.0000
  O   O6113     1.0  0.4062499999999999  0.062499999999999986  0.9374999999999999  1.0000
  O   O6114     1.0  0.4062499999999999  0.12499999999999997  0.9374999999999999  1.0000
  O   O6115     1.0  0.4062499999999999  0.18749999999999997  0.9374999999999999  1.0000
  O   O6116     1.0  0.4062499999999999  0.24999999999999983  0.9374999999999999  1.0000
  O   O6117     1.0  0.4062499999999999  0.3124999999999999  0.9374999999999999  1.0000
  O   O6118     1.0  0.4062499999999999  0.37499999999999994  0.9374999999999999  1.0000
  O   O6119     1.0  0.4062499999999999  0.4374999999999999  0.9374999999999999  1.0000
  O   O6120     1.0  0.4062499999999999  0.4999999999999999  0.9374999999999999  1.0000
  O   O6121     1.0  0.4062499999999999  0.5625  0.9374999999999999  1.0000
  O   O6122     1.0  0.4062499999999999  0.625  0.9374999999999999  1.0000
  O   O6123     1.0  0.4062499999999999  0.6875  0.9374999999999999  1.0000
  O   O6124     1.0  0.4062499999999999  0.7500000000000001  0.9374999999999999  1.0000
  O   O6125     1.0  0.4062499999999999  0.8124999999999998  0.9374999999999999  1.0000
  O   O6126     1.0  0.4062499999999999  0.8749999999999998  0.9374999999999999  1.0000
  O   O6127     1.0  0.4062499999999999  0.9374999999999998  0.9374999999999999  1.0000
  O   O6128     1.0  0.4062499999999999  0.0  0.9374999999999999  1.0000
  O   O6129     1.0  0.4374999999999999  0.09374999999999999  0.9062500000000001  1.0000
  O   O6130     1.0  0.4374999999999999  0.15625  0.9062500000000001  1.0000
  O   O6131     1.0  0.4374999999999999  0.21874999999999994  0.9062500000000001  1.0000
  O   O6132     1.0  0.4374999999999999  0.28125  0.9062500000000001  1.0000
  O   O6133     1.0  0.4374999999999999  0.3437499999999999  0.9062500000000001  1.0000
  O   O6134     1.0  0.4374999999999999  0.4062499999999999  0.9062500000000001  1.0000
  O   O6135     1.0  0.4374999999999999  0.4687499999999999  0.9062500000000001  1.0000
  O   O6136     1.0  0.4374999999999999  0.5312499999999999  0.9062500000000001  1.0000
  O   O6137     1.0  0.4374999999999999  0.5937499999999998  0.9062500000000001  1.0000
  O   O6138     1.0  0.4374999999999999  0.65625  0.9062500000000001  1.0000
  O   O6139     1.0  0.4374999999999999  0.7187499999999999  0.9062500000000001  1.0000
  O   O6140     1.0  0.4374999999999999  0.7812499999999999  0.9062500000000001  1.0000
  O   O6141     1.0  0.4374999999999999  0.8437499999999998  0.9062500000000001  1.0000
  O   O6142     1.0  0.4374999999999999  0.9062499999999998  0.9062500000000001  1.0000
  O   O6143     1.0  0.4374999999999999  0.9687499999999998  0.9062500000000001  1.0000
  O   O6144     1.0  0.4374999999999999  0.031249999999999993  0.9062500000000001  1.0000
  O   O6145     1.0  0.4687499999999999  0.062499999999999986  0.875  1.0000
  O   O6146     1.0  0.4687499999999999  0.12499999999999997  0.875  1.0000
  O   O6147     1.0  0.4687499999999999  0.18749999999999997  0.875  1.0000
  O   O6148     1.0  0.4687499999999999  0.24999999999999983  0.875  1.0000
  O   O6149     1.0  0.4687499999999999  0.3125  0.875  1.0000
  O   O6150     1.0  0.4687499999999999  0.37499999999999994  0.875  1.0000
  O   O6151     1.0  0.4687499999999999  0.4374999999999999  0.875  1.0000
  O   O6152     1.0  0.4687499999999999  0.49999999999999983  0.875  1.0000
  O   O6153     1.0  0.4687499999999999  0.5625  0.875  1.0000
  O   O6154     1.0  0.4687499999999999  0.6249999999999998  0.875  1.0000
  O   O6155     1.0  0.4687499999999999  0.6875  0.875  1.0000
  O   O6156     1.0  0.4687499999999999  0.7500000000000001  0.875  1.0000
  O   O6157     1.0  0.4687499999999999  0.8124999999999998  0.875  1.0000
  O   O6158     1.0  0.4687499999999999  0.8749999999999998  0.875  1.0000
  O   O6159     1.0  0.4687499999999999  0.9374999999999998  0.875  1.0000
  O   O6160     1.0  0.4687499999999999  0.0  0.875  1.0000
  O   O6161     1.0  0.49999999999999994  0.09374999999999999  0.84375  1.0000
  O   O6162     1.0  0.49999999999999994  0.15625  0.84375  1.0000
  O   O6163     1.0  0.49999999999999994  0.21874999999999994  0.84375  1.0000
  O   O6164     1.0  0.49999999999999994  0.28125  0.84375  1.0000
  O   O6165     1.0  0.49999999999999994  0.3437499999999999  0.84375  1.0000
  O   O6166     1.0  0.49999999999999994  0.4062499999999999  0.84375  1.0000
  O   O6167     1.0  0.49999999999999994  0.4687499999999999  0.84375  1.0000
  O   O6168     1.0  0.49999999999999994  0.5312499999999999  0.84375  1.0000
  O   O6169     1.0  0.49999999999999994  0.5937499999999998  0.84375  1.0000
  O   O6170     1.0  0.49999999999999994  0.65625  0.84375  1.0000
  O   O6171     1.0  0.49999999999999994  0.7187499999999999  0.84375  1.0000
  O   O6172     1.0  0.49999999999999994  0.7812499999999999  0.84375  1.0000
  O   O6173     1.0  0.49999999999999994  0.8437500000000001  0.84375  1.0000
  O   O6174     1.0  0.49999999999999994  0.9062499999999998  0.84375  1.0000
  O   O6175     1.0  0.49999999999999994  0.9687499999999998  0.84375  1.0000
  O   O6176     1.0  0.49999999999999994  0.031249999999999993  0.84375  1.0000
  O   O6177     1.0  0.53125  0.062499999999999986  0.8125  1.0000
  O   O6178     1.0  0.53125  0.12499999999999997  0.8125  1.0000
  O   O6179     1.0  0.53125  0.18749999999999997  0.8125  1.0000
  O   O6180     1.0  0.53125  0.24999999999999994  0.8125  1.0000
  O   O6181     1.0  0.53125  0.3125  0.8125  1.0000
  O   O6182     1.0  0.53125  0.37499999999999994  0.8125  1.0000
  O   O6183     1.0  0.53125  0.4374999999999999  0.8125  1.0000
  O   O6184     1.0  0.53125  0.49999999999999983  0.8125  1.0000
  O   O6185     1.0  0.53125  0.5624999999999998  0.8125  1.0000
  O   O6186     1.0  0.53125  0.6249999999999998  0.8125  1.0000
  O   O6187     1.0  0.53125  0.6875  0.8125  1.0000
  O   O6188     1.0  0.53125  0.7499999999999999  0.8125  1.0000
  O   O6189     1.0  0.53125  0.8124999999999998  0.8125  1.0000
  O   O6190     1.0  0.53125  0.8749999999999998  0.8125  1.0000
  O   O6191     1.0  0.53125  0.9374999999999998  0.8125  1.0000
  O   O6192     1.0  0.53125  0.0  0.8125  1.0000
  O   O6193     1.0  0.5625  0.09374999999999999  0.78125  1.0000
  O   O6194     1.0  0.5625  0.15625  0.78125  1.0000
  O   O6195     1.0  0.5625  0.21874999999999994  0.78125  1.0000
  O   O6196     1.0  0.5625  0.2812499999999999  0.78125  1.0000
  O   O6197     1.0  0.5625  0.3437499999999999  0.78125  1.0000
  O   O6198     1.0  0.5625  0.4062499999999999  0.78125  1.0000
  O   O6199     1.0  0.5625  0.4687499999999999  0.78125  1.0000
  O   O6200     1.0  0.5625  0.53125  0.78125  1.0000
  O   O6201     1.0  0.5625  0.59375  0.78125  1.0000
  O   O6202     1.0  0.5625  0.65625  0.78125  1.0000
  O   O6203     1.0  0.5625  0.7187499999999999  0.78125  1.0000
  O   O6204     1.0  0.5625  0.7812499999999999  0.78125  1.0000
  O   O6205     1.0  0.5625  0.8437500000000001  0.78125  1.0000
  O   O6206     1.0  0.5625  0.9062499999999998  0.78125  1.0000
  O   O6207     1.0  0.5625  0.9687499999999998  0.78125  1.0000
  O   O6208     1.0  0.5625  0.031249999999999993  0.78125  1.0000
  O   O6209     1.0  0.59375  0.062499999999999986  0.7500000000000002  1.0000
  O   O6210     1.0  0.59375  0.12499999999999997  0.7500000000000002  1.0000
  O   O6211     1.0  0.59375  0.18749999999999997  0.7500000000000002  1.0000
  O   O6212     1.0  0.59375  0.24999999999999994  0.7500000000000002  1.0000
  O   O6213     1.0  0.59375  0.3125  0.7500000000000002  1.0000
  O   O6214     1.0  0.59375  0.37499999999999994  0.7500000000000002  1.0000
  O   O6215     1.0  0.59375  0.4374999999999999  0.7500000000000002  1.0000
  O   O6216     1.0  0.59375  0.49999999999999983  0.7500000000000002  1.0000
  O   O6217     1.0  0.59375  0.5624999999999998  0.7500000000000002  1.0000
  O   O6218     1.0  0.59375  0.6249999999999998  0.7500000000000002  1.0000
  O   O6219     1.0  0.59375  0.6875  0.7500000000000002  1.0000
  O   O6220     1.0  0.59375  0.7499999999999999  0.7500000000000002  1.0000
  O   O6221     1.0  0.59375  0.8124999999999998  0.7500000000000002  1.0000
  O   O6222     1.0  0.59375  0.8749999999999998  0.7500000000000002  1.0000
  O   O6223     1.0  0.59375  0.9374999999999998  0.7500000000000002  1.0000
  O   O6224     1.0  0.59375  0.0  0.7500000000000002  1.0000
  O   O6225     1.0  0.6250000000000002  0.09374999999999999  0.71875  1.0000
  O   O6226     1.0  0.6250000000000002  0.15625  0.71875  1.0000
  O   O6227     1.0  0.6250000000000002  0.21874999999999994  0.71875  1.0000
  O   O6228     1.0  0.6250000000000002  0.2812499999999999  0.71875  1.0000
  O   O6229     1.0  0.6250000000000002  0.3437499999999999  0.71875  1.0000
  O   O6230     1.0  0.6250000000000002  0.4062499999999999  0.71875  1.0000
  O   O6231     1.0  0.6250000000000002  0.4687499999999999  0.71875  1.0000
  O   O6232     1.0  0.6250000000000002  0.53125  0.71875  1.0000
  O   O6233     1.0  0.6250000000000002  0.59375  0.71875  1.0000
  O   O6234     1.0  0.6250000000000002  0.6562499999999998  0.71875  1.0000
  O   O6235     1.0  0.6250000000000002  0.7187499999999999  0.71875  1.0000
  O   O6236     1.0  0.6250000000000002  0.7812499999999999  0.71875  1.0000
  O   O6237     1.0  0.6250000000000002  0.8437499999999998  0.71875  1.0000
  O   O6238     1.0  0.6250000000000002  0.9062499999999998  0.71875  1.0000
  O   O6239     1.0  0.6250000000000002  0.9687499999999998  0.71875  1.0000
  O   O6240     1.0  0.6250000000000002  0.031249999999999993  0.71875  1.0000
  O   O6241     1.0  0.65625  0.062499999999999986  0.6875000000000001  1.0000
  O   O6242     1.0  0.65625  0.12499999999999997  0.6875000000000001  1.0000
  O   O6243     1.0  0.65625  0.18749999999999997  0.6875000000000001  1.0000
  O   O6244     1.0  0.65625  0.24999999999999994  0.6875000000000001  1.0000
  O   O6245     1.0  0.65625  0.3125  0.6875000000000001  1.0000
  O   O6246     1.0  0.65625  0.3749999999999999  0.6875000000000001  1.0000
  O   O6247     1.0  0.65625  0.4374999999999999  0.6875000000000001  1.0000
  O   O6248     1.0  0.65625  0.49999999999999983  0.6875000000000001  1.0000
  O   O6249     1.0  0.65625  0.5624999999999998  0.6875000000000001  1.0000
  O   O6250     1.0  0.65625  0.6249999999999998  0.6875000000000001  1.0000
  O   O6251     1.0  0.65625  0.6875  0.6875000000000001  1.0000
  O   O6252     1.0  0.65625  0.7499999999999999  0.6875000000000001  1.0000
  O   O6253     1.0  0.65625  0.8124999999999998  0.6875000000000001  1.0000
  O   O6254     1.0  0.65625  0.8749999999999998  0.6875000000000001  1.0000
  O   O6255     1.0  0.65625  0.9374999999999998  0.6875000000000001  1.0000
  O   O6256     1.0  0.65625  0.0  0.6875000000000001  1.0000
  O   O6257     1.0  0.6875000000000002  0.09374999999999999  0.6562500000000001  1.0000
  O   O6258     1.0  0.6875000000000002  0.15625  0.6562500000000001  1.0000
  O   O6259     1.0  0.6875000000000002  0.21874999999999994  0.6562500000000001  1.0000
  O   O6260     1.0  0.6875000000000002  0.2812499999999999  0.6562500000000001  1.0000
  O   O6261     1.0  0.6875000000000002  0.34375  0.6562500000000001  1.0000
  O   O6262     1.0  0.6875000000000002  0.4062499999999999  0.6562500000000001  1.0000
  O   O6263     1.0  0.6875000000000002  0.4687499999999999  0.6562500000000001  1.0000
  O   O6264     1.0  0.6875000000000002  0.53125  0.6562500000000001  1.0000
  O   O6265     1.0  0.6875000000000002  0.59375  0.6562500000000001  1.0000
  O   O6266     1.0  0.6875000000000002  0.6562499999999998  0.6562500000000001  1.0000
  O   O6267     1.0  0.6875000000000002  0.7187499999999999  0.6562500000000001  1.0000
  O   O6268     1.0  0.6875000000000002  0.7812499999999999  0.6562500000000001  1.0000
  O   O6269     1.0  0.6875000000000002  0.8437499999999998  0.6562500000000001  1.0000
  O   O6270     1.0  0.6875000000000002  0.9062499999999998  0.6562500000000001  1.0000
  O   O6271     1.0  0.6875000000000002  0.9687499999999998  0.6562500000000001  1.0000
  O   O6272     1.0  0.6875000000000002  0.031249999999999993  0.6562500000000001  1.0000
  O   O6273     1.0  0.71875  0.062499999999999986  0.6250000000000001  1.0000
  O   O6274     1.0  0.71875  0.12499999999999997  0.6250000000000001  1.0000
  O   O6275     1.0  0.71875  0.18749999999999997  0.6250000000000001  1.0000
  O   O6276     1.0  0.71875  0.24999999999999994  0.6250000000000001  1.0000
  O   O6277     1.0  0.71875  0.3124999999999999  0.6250000000000001  1.0000
  O   O6278     1.0  0.71875  0.3749999999999999  0.6250000000000001  1.0000
  O   O6279     1.0  0.71875  0.4374999999999999  0.6250000000000001  1.0000
  O   O6280     1.0  0.71875  0.49999999999999983  0.6250000000000001  1.0000
  O   O6281     1.0  0.71875  0.5624999999999998  0.6250000000000001  1.0000
  O   O6282     1.0  0.71875  0.625  0.6250000000000001  1.0000
  O   O6283     1.0  0.71875  0.6875  0.6250000000000001  1.0000
  O   O6284     1.0  0.71875  0.7499999999999999  0.6250000000000001  1.0000
  O   O6285     1.0  0.71875  0.8124999999999998  0.6250000000000001  1.0000
  O   O6286     1.0  0.71875  0.8749999999999998  0.6250000000000001  1.0000
  O   O6287     1.0  0.71875  0.9374999999999998  0.6250000000000001  1.0000
  O   O6288     1.0  0.71875  0.0  0.6250000000000001  1.0000
  O   O6289     1.0  0.75  0.09374999999999999  0.5937500000000001  1.0000
  O   O6290     1.0  0.75  0.15625  0.5937500000000001  1.0000
  O   O6291     1.0  0.75  0.21874999999999994  0.5937500000000001  1.0000
  O   O6292     1.0  0.75  0.28125  0.5937500000000001  1.0000
  O   O6293     1.0  0.75  0.34375  0.5937500000000001  1.0000
  O   O6294     1.0  0.75  0.4062499999999999  0.5937500000000001  1.0000
  O   O6295     1.0  0.75  0.4687499999999999  0.5937500000000001  1.0000
  O   O6296     1.0  0.75  0.53125  0.5937500000000001  1.0000
  O   O6297     1.0  0.75  0.5937499999999998  0.5937500000000001  1.0000
  O   O6298     1.0  0.75  0.6562499999999998  0.5937500000000001  1.0000
  O   O6299     1.0  0.75  0.7187499999999999  0.5937500000000001  1.0000
  O   O6300     1.0  0.75  0.7812499999999999  0.5937500000000001  1.0000
  O   O6301     1.0  0.75  0.8437499999999998  0.5937500000000001  1.0000
  O   O6302     1.0  0.75  0.9062499999999998  0.5937500000000001  1.0000
  O   O6303     1.0  0.75  0.9687499999999998  0.5937500000000001  1.0000
  O   O6304     1.0  0.75  0.031249999999999993  0.5937500000000001  1.0000
  O   O6305     1.0  0.7812499999999999  0.062499999999999986  0.5624999999999998  1.0000
  O   O6306     1.0  0.7812499999999999  0.12499999999999997  0.5624999999999998  1.0000
  O   O6307     1.0  0.7812499999999999  0.18749999999999997  0.5624999999999998  1.0000
  O   O6308     1.0  0.7812499999999999  0.24999999999999994  0.5624999999999998  1.0000
  O   O6309     1.0  0.7812499999999999  0.3124999999999999  0.5624999999999998  1.0000
  O   O6310     1.0  0.7812499999999999  0.3749999999999999  0.5624999999999998  1.0000
  O   O6311     1.0  0.7812499999999999  0.4374999999999999  0.5624999999999998  1.0000
  O   O6312     1.0  0.7812499999999999  0.49999999999999983  0.5624999999999998  1.0000
  O   O6313     1.0  0.7812499999999999  0.5624999999999998  0.5624999999999998  1.0000
  O   O6314     1.0  0.7812499999999999  0.625  0.5624999999999998  1.0000
  O   O6315     1.0  0.7812499999999999  0.6875  0.5624999999999998  1.0000
  O   O6316     1.0  0.7812499999999999  0.7499999999999999  0.5624999999999998  1.0000
  O   O6317     1.0  0.7812499999999999  0.8125000000000001  0.5624999999999998  1.0000
  O   O6318     1.0  0.7812499999999999  0.8749999999999998  0.5624999999999998  1.0000
  O   O6319     1.0  0.7812499999999999  0.9374999999999998  0.5624999999999998  1.0000
  O   O6320     1.0  0.7812499999999999  0.0  0.5624999999999998  1.0000
  O   O6321     1.0  0.8124999999999999  0.09374999999999999  0.5312499999999998  1.0000
  O   O6322     1.0  0.8124999999999999  0.15625  0.5312499999999998  1.0000
  O   O6323     1.0  0.8124999999999999  0.21874999999999994  0.5312499999999998  1.0000
  O   O6324     1.0  0.8124999999999999  0.28125  0.5312499999999998  1.0000
  O   O6325     1.0  0.8124999999999999  0.34375  0.5312499999999998  1.0000
  O   O6326     1.0  0.8124999999999999  0.4062499999999999  0.5312499999999998  1.0000
  O   O6327     1.0  0.8124999999999999  0.4687499999999999  0.5312499999999998  1.0000
  O   O6328     1.0  0.8124999999999999  0.5312499999999999  0.5312499999999998  1.0000
  O   O6329     1.0  0.8124999999999999  0.5937499999999998  0.5312499999999998  1.0000
  O   O6330     1.0  0.8124999999999999  0.6562499999999998  0.5312499999999998  1.0000
  O   O6331     1.0  0.8124999999999999  0.7187499999999999  0.5312499999999998  1.0000
  O   O6332     1.0  0.8124999999999999  0.7812499999999999  0.5312499999999998  1.0000
  O   O6333     1.0  0.8124999999999999  0.8437499999999998  0.5312499999999998  1.0000
  O   O6334     1.0  0.8124999999999999  0.9062499999999998  0.5312499999999998  1.0000
  O   O6335     1.0  0.8124999999999999  0.9687499999999998  0.5312499999999998  1.0000
  O   O6336     1.0  0.8124999999999999  0.031249999999999993  0.5312499999999998  1.0000
  O   O6337     1.0  0.8437500000000001  0.062499999999999986  0.5  1.0000
  O   O6338     1.0  0.8437500000000001  0.12499999999999997  0.5  1.0000
  O   O6339     1.0  0.8437500000000001  0.18749999999999997  0.5  1.0000
  O   O6340     1.0  0.8437500000000001  0.24999999999999994  0.5  1.0000
  O   O6341     1.0  0.8437500000000001  0.3124999999999999  0.5  1.0000
  O   O6342     1.0  0.8437500000000001  0.3749999999999999  0.5  1.0000
  O   O6343     1.0  0.8437500000000001  0.4374999999999999  0.5  1.0000
  O   O6344     1.0  0.8437500000000001  0.4999999999999999  0.5  1.0000
  O   O6345     1.0  0.8437500000000001  0.5625  0.5  1.0000
  O   O6346     1.0  0.8437500000000001  0.625  0.5  1.0000
  O   O6347     1.0  0.8437500000000001  0.6874999999999998  0.5  1.0000
  O   O6348     1.0  0.8437500000000001  0.7499999999999999  0.5  1.0000
  O   O6349     1.0  0.8437500000000001  0.8125000000000001  0.5  1.0000
  O   O6350     1.0  0.8437500000000001  0.8749999999999998  0.5  1.0000
  O   O6351     1.0  0.8437500000000001  0.9374999999999998  0.5  1.0000
  O   O6352     1.0  0.8437500000000001  0.9999999999999999  0.5  1.0000
  O   O6353     1.0  0.8749999999999999  0.09374999999999999  0.4687500000000001  1.0000
  O   O6354     1.0  0.8749999999999999  0.15625  0.4687500000000001  1.0000
  O   O6355     1.0  0.8749999999999999  0.21874999999999994  0.4687500000000001  1.0000
  O   O6356     1.0  0.8749999999999999  0.28125  0.4687500000000001  1.0000
  O   O6357     1.0  0.8749999999999999  0.34375  0.4687500000000001  1.0000
  O   O6358     1.0  0.8749999999999999  0.4062499999999999  0.4687500000000001  1.0000
  O   O6359     1.0  0.8749999999999999  0.4687499999999999  0.4687500000000001  1.0000
  O   O6360     1.0  0.8749999999999999  0.5312499999999999  0.4687500000000001  1.0000
  O   O6361     1.0  0.8749999999999999  0.5937499999999998  0.4687500000000001  1.0000
  O   O6362     1.0  0.8749999999999999  0.6562499999999998  0.4687500000000001  1.0000
  O   O6363     1.0  0.8749999999999999  0.7187499999999999  0.4687500000000001  1.0000
  O   O6364     1.0  0.8749999999999999  0.7812499999999999  0.4687500000000001  1.0000
  O   O6365     1.0  0.8749999999999999  0.8437499999999998  0.4687500000000001  1.0000
  O   O6366     1.0  0.8749999999999999  0.9062499999999998  0.4687500000000001  1.0000
  O   O6367     1.0  0.8749999999999999  0.9687499999999998  0.4687500000000001  1.0000
  O   O6368     1.0  0.8749999999999999  0.031249999999999993  0.4687500000000001  1.0000
  O   O6369     1.0  0.9062500000000001  0.062499999999999986  0.43749999999999994  1.0000
  O   O6370     1.0  0.9062500000000001  0.12499999999999997  0.43749999999999994  1.0000
  O   O6371     1.0  0.9062500000000001  0.18749999999999997  0.43749999999999994  1.0000
  O   O6372     1.0  0.9062500000000001  0.24999999999999983  0.43749999999999994  1.0000
  O   O6373     1.0  0.9062500000000001  0.3124999999999999  0.43749999999999994  1.0000
  O   O6374     1.0  0.9062500000000001  0.37499999999999994  0.43749999999999994  1.0000
  O   O6375     1.0  0.9062500000000001  0.4374999999999999  0.43749999999999994  1.0000
  O   O6376     1.0  0.9062500000000001  0.4999999999999999  0.43749999999999994  1.0000
  O   O6377     1.0  0.9062500000000001  0.5625  0.43749999999999994  1.0000
  O   O6378     1.0  0.9062500000000001  0.625  0.43749999999999994  1.0000
  O   O6379     1.0  0.9062500000000001  0.6874999999999998  0.43749999999999994  1.0000
  O   O6380     1.0  0.9062500000000001  0.7499999999999999  0.43749999999999994  1.0000
  O   O6381     1.0  0.9062500000000001  0.8124999999999998  0.43749999999999994  1.0000
  O   O6382     1.0  0.9062500000000001  0.8749999999999998  0.43749999999999994  1.0000
  O   O6383     1.0  0.9062500000000001  0.9374999999999998  0.43749999999999994  1.0000
  O   O6384     1.0  0.9062500000000001  0.9999999999999999  0.43749999999999994  1.0000
  O   O6385     1.0  0.9374999999999999  0.09374999999999999  0.40624999999999994  1.0000
  O   O6386     1.0  0.9374999999999999  0.15625  0.40624999999999994  1.0000
  O   O6387     1.0  0.9374999999999999  0.21874999999999994  0.40624999999999994  1.0000
  O   O6388     1.0  0.9374999999999999  0.28125  0.40624999999999994  1.0000
  O   O6389     1.0  0.9374999999999999  0.3437499999999999  0.40624999999999994  1.0000
  O   O6390     1.0  0.9374999999999999  0.4062499999999999  0.40624999999999994  1.0000
  O   O6391     1.0  0.9374999999999999  0.4687499999999999  0.40624999999999994  1.0000
  O   O6392     1.0  0.9374999999999999  0.5312499999999999  0.40624999999999994  1.0000
  O   O6393     1.0  0.9374999999999999  0.5937499999999998  0.40624999999999994  1.0000
  O   O6394     1.0  0.9374999999999999  0.6562499999999998  0.40624999999999994  1.0000
  O   O6395     1.0  0.9374999999999999  0.7187499999999999  0.40624999999999994  1.0000
  O   O6396     1.0  0.9374999999999999  0.7812499999999999  0.40624999999999994  1.0000
  O   O6397     1.0  0.9374999999999999  0.8437499999999998  0.40624999999999994  1.0000
  O   O6398     1.0  0.9374999999999999  0.9062499999999998  0.40624999999999994  1.0000
  O   O6399     1.0  0.9374999999999999  0.9687499999999998  0.40624999999999994  1.0000
  O   O6400     1.0  0.9374999999999999  0.031249999999999993  0.40624999999999994  1.0000
  O   O6401     1.0  0.9687500000000001  0.062499999999999986  0.375  1.0000
  O   O6402     1.0  0.9687500000000001  0.12499999999999997  0.375  1.0000
  O   O6403     1.0  0.9687500000000001  0.18749999999999997  0.375  1.0000
  O   O6404     1.0  0.9687500000000001  0.24999999999999983  0.375  1.0000
  O   O6405     1.0  0.9687500000000001  0.3125  0.375  1.0000
  O   O6406     1.0  0.9687500000000001  0.37499999999999994  0.375  1.0000
  O   O6407     1.0  0.9687500000000001  0.4374999999999999  0.375  1.0000
  O   O6408     1.0  0.9687500000000001  0.49999999999999983  0.375  1.0000
  O   O6409     1.0  0.9687500000000001  0.5625  0.375  1.0000
  O   O6410     1.0  0.9687500000000001  0.6249999999999998  0.375  1.0000
  O   O6411     1.0  0.9687500000000001  0.6874999999999998  0.375  1.0000
  O   O6412     1.0  0.9687500000000001  0.7499999999999999  0.375  1.0000
  O   O6413     1.0  0.9687500000000001  0.8124999999999998  0.375  1.0000
  O   O6414     1.0  0.9687500000000001  0.8749999999999998  0.375  1.0000
  O   O6415     1.0  0.9687500000000001  0.9374999999999998  0.375  1.0000
  O   O6416     1.0  0.9687500000000001  0.9999999999999999  0.375  1.0000
  O   O6417     1.0  0.0  0.09374999999999999  0.34375000000000006  1.0000
  O   O6418     1.0  0.0  0.15625  0.34375000000000006  1.0000
  O   O6419     1.0  0.0  0.21874999999999994  0.34375000000000006  1.0000
  O   O6420     1.0  0.0  0.28125  0.34375000000000006  1.0000
  O   O6421     1.0  0.0  0.3437499999999999  0.34375000000000006  1.0000
  O   O6422     1.0  0.0  0.4062499999999999  0.34375000000000006  1.0000
  O   O6423     1.0  0.0  0.4687499999999999  0.34375000000000006  1.0000
  O   O6424     1.0  0.0  0.5312499999999999  0.34375000000000006  1.0000
  O   O6425     1.0  0.0  0.59375  0.34375000000000006  1.0000
  O   O6426     1.0  0.0  0.65625  0.34375000000000006  1.0000
  O   O6427     1.0  0.0  0.7187499999999999  0.34375000000000006  1.0000
  O   O6428     1.0  0.0  0.7812499999999999  0.34375000000000006  1.0000
  O   O6429     1.0  0.0  0.8437499999999998  0.34375000000000006  1.0000
  O   O6430     1.0  0.0  0.9062499999999998  0.34375000000000006  1.0000
  O   O6431     1.0  0.0  0.9687499999999998  0.34375000000000006  1.0000
  O   O6432     1.0  0.0  0.031249999999999993  0.34375000000000006  1.0000
  O   O6433     1.0  0.4062499999999999  0.062499999999999986  0.0  1.0000
  O   O6434     1.0  0.4062499999999999  0.12499999999999997  0.0  1.0000
  O   O6435     1.0  0.4062499999999999  0.18749999999999997  0.0  1.0000
  O   O6436     1.0  0.4062499999999999  0.24999999999999983  0.0  1.0000
  O   O6437     1.0  0.4062499999999999  0.3124999999999999  0.0  1.0000
  O   O6438     1.0  0.4062499999999999  0.37499999999999994  0.0  1.0000
  O   O6439     1.0  0.4062499999999999  0.4374999999999999  0.0  1.0000
  O   O6440     1.0  0.4062499999999999  0.4999999999999999  0.0  1.0000
  O   O6441     1.0  0.4062499999999999  0.5625  0.0  1.0000
  O   O6442     1.0  0.4062499999999999  0.625  0.0  1.0000
  O   O6443     1.0  0.4062499999999999  0.6875  0.0  1.0000
  O   O6444     1.0  0.4062499999999999  0.7500000000000001  0.0  1.0000
  O   O6445     1.0  0.4062499999999999  0.8124999999999998  0.0  1.0000
  O   O6446     1.0  0.4062499999999999  0.8749999999999998  0.0  1.0000
  O   O6447     1.0  0.4062499999999999  0.9374999999999998  0.0  1.0000
  O   O6448     1.0  0.4062499999999999  0.0  0.0  1.0000
  O   O6449     1.0  0.4374999999999999  0.09374999999999999  0.9687500000000001  1.0000
  O   O6450     1.0  0.4374999999999999  0.15625  0.9687500000000001  1.0000
  O   O6451     1.0  0.4374999999999999  0.21874999999999994  0.9687500000000001  1.0000
  O   O6452     1.0  0.4374999999999999  0.28125  0.9687500000000001  1.0000
  O   O6453     1.0  0.4374999999999999  0.3437499999999999  0.9687500000000001  1.0000
  O   O6454     1.0  0.4374999999999999  0.4062499999999999  0.9687500000000001  1.0000
  O   O6455     1.0  0.4374999999999999  0.4687499999999999  0.9687500000000001  1.0000
  O   O6456     1.0  0.4374999999999999  0.5312499999999999  0.9687500000000001  1.0000
  O   O6457     1.0  0.4374999999999999  0.5937499999999998  0.9687500000000001  1.0000
  O   O6458     1.0  0.4374999999999999  0.65625  0.9687500000000001  1.0000
  O   O6459     1.0  0.4374999999999999  0.7187499999999999  0.9687500000000001  1.0000
  O   O6460     1.0  0.4374999999999999  0.7812499999999999  0.9687500000000001  1.0000
  O   O6461     1.0  0.4374999999999999  0.8437499999999998  0.9687500000000001  1.0000
  O   O6462     1.0  0.4374999999999999  0.9062499999999998  0.9687500000000001  1.0000
  O   O6463     1.0  0.4374999999999999  0.9687499999999998  0.9687500000000001  1.0000
  O   O6464     1.0  0.4374999999999999  0.031249999999999993  0.9687500000000001  1.0000
  O   O6465     1.0  0.4687499999999999  0.062499999999999986  0.9375000000000001  1.0000
  O   O6466     1.0  0.4687499999999999  0.12499999999999997  0.9375000000000001  1.0000
  O   O6467     1.0  0.4687499999999999  0.18749999999999997  0.9375000000000001  1.0000
  O   O6468     1.0  0.4687499999999999  0.24999999999999983  0.9375000000000001  1.0000
  O   O6469     1.0  0.4687499999999999  0.3125  0.9375000000000001  1.0000
  O   O6470     1.0  0.4687499999999999  0.37499999999999994  0.9375000000000001  1.0000
  O   O6471     1.0  0.4687499999999999  0.4374999999999999  0.9375000000000001  1.0000
  O   O6472     1.0  0.4687499999999999  0.49999999999999983  0.9375000000000001  1.0000
  O   O6473     1.0  0.4687499999999999  0.5625  0.9375000000000001  1.0000
  O   O6474     1.0  0.4687499999999999  0.6249999999999998  0.9375000000000001  1.0000
  O   O6475     1.0  0.4687499999999999  0.6875  0.9375000000000001  1.0000
  O   O6476     1.0  0.4687499999999999  0.7500000000000001  0.9375000000000001  1.0000
  O   O6477     1.0  0.4687499999999999  0.8124999999999998  0.9375000000000001  1.0000
  O   O6478     1.0  0.4687499999999999  0.8749999999999998  0.9375000000000001  1.0000
  O   O6479     1.0  0.4687499999999999  0.9374999999999998  0.9375000000000001  1.0000
  O   O6480     1.0  0.4687499999999999  0.0  0.9375000000000001  1.0000
  O   O6481     1.0  0.49999999999999994  0.09374999999999999  0.9062500000000001  1.0000
  O   O6482     1.0  0.49999999999999994  0.15625  0.9062500000000001  1.0000
  O   O6483     1.0  0.49999999999999994  0.21874999999999994  0.9062500000000001  1.0000
  O   O6484     1.0  0.49999999999999994  0.28125  0.9062500000000001  1.0000
  O   O6485     1.0  0.49999999999999994  0.3437499999999999  0.9062500000000001  1.0000
  O   O6486     1.0  0.49999999999999994  0.4062499999999999  0.9062500000000001  1.0000
  O   O6487     1.0  0.49999999999999994  0.4687499999999999  0.9062500000000001  1.0000
  O   O6488     1.0  0.49999999999999994  0.5312499999999999  0.9062500000000001  1.0000
  O   O6489     1.0  0.49999999999999994  0.5937499999999998  0.9062500000000001  1.0000
  O   O6490     1.0  0.49999999999999994  0.65625  0.9062500000000001  1.0000
  O   O6491     1.0  0.49999999999999994  0.7187499999999999  0.9062500000000001  1.0000
  O   O6492     1.0  0.49999999999999994  0.7812499999999999  0.9062500000000001  1.0000
  O   O6493     1.0  0.49999999999999994  0.8437500000000001  0.9062500000000001  1.0000
  O   O6494     1.0  0.49999999999999994  0.9062499999999998  0.9062500000000001  1.0000
  O   O6495     1.0  0.49999999999999994  0.9687499999999998  0.9062500000000001  1.0000
  O   O6496     1.0  0.49999999999999994  0.031249999999999993  0.9062500000000001  1.0000
  O   O6497     1.0  0.5312499999999999  0.062499999999999986  0.875  1.0000
  O   O6498     1.0  0.5312499999999999  0.12499999999999997  0.875  1.0000
  O   O6499     1.0  0.5312499999999999  0.18749999999999997  0.875  1.0000
  O   O6500     1.0  0.5312499999999999  0.24999999999999994  0.875  1.0000
  O   O6501     1.0  0.5312499999999999  0.3125  0.875  1.0000
  O   O6502     1.0  0.5312499999999999  0.37499999999999994  0.875  1.0000
  O   O6503     1.0  0.5312499999999999  0.4374999999999999  0.875  1.0000
  O   O6504     1.0  0.5312499999999999  0.49999999999999983  0.875  1.0000
  O   O6505     1.0  0.5312499999999999  0.5624999999999998  0.875  1.0000
  O   O6506     1.0  0.5312499999999999  0.6249999999999998  0.875  1.0000
  O   O6507     1.0  0.5312499999999999  0.6875  0.875  1.0000
  O   O6508     1.0  0.5312499999999999  0.7499999999999999  0.875  1.0000
  O   O6509     1.0  0.5312499999999999  0.8124999999999998  0.875  1.0000
  O   O6510     1.0  0.5312499999999999  0.8749999999999998  0.875  1.0000
  O   O6511     1.0  0.5312499999999999  0.9374999999999998  0.875  1.0000
  O   O6512     1.0  0.5312499999999999  0.0  0.875  1.0000
  O   O6513     1.0  0.5624999999999999  0.09374999999999999  0.84375  1.0000
  O   O6514     1.0  0.5624999999999999  0.15625  0.84375  1.0000
  O   O6515     1.0  0.5624999999999999  0.21874999999999994  0.84375  1.0000
  O   O6516     1.0  0.5624999999999999  0.2812499999999999  0.84375  1.0000
  O   O6517     1.0  0.5624999999999999  0.3437499999999999  0.84375  1.0000
  O   O6518     1.0  0.5624999999999999  0.4062499999999999  0.84375  1.0000
  O   O6519     1.0  0.5624999999999999  0.4687499999999999  0.84375  1.0000
  O   O6520     1.0  0.5624999999999999  0.53125  0.84375  1.0000
  O   O6521     1.0  0.5624999999999999  0.59375  0.84375  1.0000
  O   O6522     1.0  0.5624999999999999  0.65625  0.84375  1.0000
  O   O6523     1.0  0.5624999999999999  0.7187499999999999  0.84375  1.0000
  O   O6524     1.0  0.5624999999999999  0.7812499999999999  0.84375  1.0000
  O   O6525     1.0  0.5624999999999999  0.8437500000000001  0.84375  1.0000
  O   O6526     1.0  0.5624999999999999  0.9062499999999998  0.84375  1.0000
  O   O6527     1.0  0.5624999999999999  0.9687499999999998  0.84375  1.0000
  O   O6528     1.0  0.5624999999999999  0.031249999999999993  0.84375  1.0000
  O   O6529     1.0  0.59375  0.062499999999999986  0.8125  1.0000
  O   O6530     1.0  0.59375  0.12499999999999997  0.8125  1.0000
  O   O6531     1.0  0.59375  0.18749999999999997  0.8125  1.0000
  O   O6532     1.0  0.59375  0.24999999999999994  0.8125  1.0000
  O   O6533     1.0  0.59375  0.3125  0.8125  1.0000
  O   O6534     1.0  0.59375  0.37499999999999994  0.8125  1.0000
  O   O6535     1.0  0.59375  0.4374999999999999  0.8125  1.0000
  O   O6536     1.0  0.59375  0.49999999999999983  0.8125  1.0000
  O   O6537     1.0  0.59375  0.5624999999999998  0.8125  1.0000
  O   O6538     1.0  0.59375  0.6249999999999998  0.8125  1.0000
  O   O6539     1.0  0.59375  0.6875  0.8125  1.0000
  O   O6540     1.0  0.59375  0.7499999999999999  0.8125  1.0000
  O   O6541     1.0  0.59375  0.8124999999999998  0.8125  1.0000
  O   O6542     1.0  0.59375  0.8749999999999998  0.8125  1.0000
  O   O6543     1.0  0.59375  0.9374999999999998  0.8125  1.0000
  O   O6544     1.0  0.59375  0.0  0.8125  1.0000
  O   O6545     1.0  0.6250000000000002  0.09374999999999999  0.7812499999999999  1.0000
  O   O6546     1.0  0.6250000000000002  0.15625  0.7812499999999999  1.0000
  O   O6547     1.0  0.6250000000000002  0.21874999999999994  0.7812499999999999  1.0000
  O   O6548     1.0  0.6250000000000002  0.2812499999999999  0.7812499999999999  1.0000
  O   O6549     1.0  0.6250000000000002  0.3437499999999999  0.7812499999999999  1.0000
  O   O6550     1.0  0.6250000000000002  0.4062499999999999  0.7812499999999999  1.0000
  O   O6551     1.0  0.6250000000000002  0.4687499999999999  0.7812499999999999  1.0000
  O   O6552     1.0  0.6250000000000002  0.53125  0.7812499999999999  1.0000
  O   O6553     1.0  0.6250000000000002  0.59375  0.7812499999999999  1.0000
  O   O6554     1.0  0.6250000000000002  0.6562499999999998  0.7812499999999999  1.0000
  O   O6555     1.0  0.6250000000000002  0.7187499999999999  0.7812499999999999  1.0000
  O   O6556     1.0  0.6250000000000002  0.7812499999999999  0.7812499999999999  1.0000
  O   O6557     1.0  0.6250000000000002  0.8437499999999998  0.7812499999999999  1.0000
  O   O6558     1.0  0.6250000000000002  0.9062499999999998  0.7812499999999999  1.0000
  O   O6559     1.0  0.6250000000000002  0.9687499999999998  0.7812499999999999  1.0000
  O   O6560     1.0  0.6250000000000002  0.031249999999999993  0.7812499999999999  1.0000
  O   O6561     1.0  0.65625  0.062499999999999986  0.75  1.0000
  O   O6562     1.0  0.65625  0.12499999999999997  0.75  1.0000
  O   O6563     1.0  0.65625  0.18749999999999997  0.75  1.0000
  O   O6564     1.0  0.65625  0.24999999999999994  0.75  1.0000
  O   O6565     1.0  0.65625  0.3125  0.75  1.0000
  O   O6566     1.0  0.65625  0.3749999999999999  0.75  1.0000
  O   O6567     1.0  0.65625  0.4374999999999999  0.75  1.0000
  O   O6568     1.0  0.65625  0.49999999999999983  0.75  1.0000
  O   O6569     1.0  0.65625  0.5624999999999998  0.75  1.0000
  O   O6570     1.0  0.65625  0.6249999999999998  0.75  1.0000
  O   O6571     1.0  0.65625  0.6875  0.75  1.0000
  O   O6572     1.0  0.65625  0.7499999999999999  0.75  1.0000
  O   O6573     1.0  0.65625  0.8124999999999998  0.75  1.0000
  O   O6574     1.0  0.65625  0.8749999999999998  0.75  1.0000
  O   O6575     1.0  0.65625  0.9374999999999998  0.75  1.0000
  O   O6576     1.0  0.65625  0.0  0.75  1.0000
  O   O6577     1.0  0.6875000000000002  0.09374999999999999  0.71875  1.0000
  O   O6578     1.0  0.6875000000000002  0.15625  0.71875  1.0000
  O   O6579     1.0  0.6875000000000002  0.21874999999999994  0.71875  1.0000
  O   O6580     1.0  0.6875000000000002  0.2812499999999999  0.71875  1.0000
  O   O6581     1.0  0.6875000000000002  0.34375  0.71875  1.0000
  O   O6582     1.0  0.6875000000000002  0.4062499999999999  0.71875  1.0000
  O   O6583     1.0  0.6875000000000002  0.4687499999999999  0.71875  1.0000
  O   O6584     1.0  0.6875000000000002  0.53125  0.71875  1.0000
  O   O6585     1.0  0.6875000000000002  0.59375  0.71875  1.0000
  O   O6586     1.0  0.6875000000000002  0.6562499999999998  0.71875  1.0000
  O   O6587     1.0  0.6875000000000002  0.7187499999999999  0.71875  1.0000
  O   O6588     1.0  0.6875000000000002  0.7812499999999999  0.71875  1.0000
  O   O6589     1.0  0.6875000000000002  0.8437499999999998  0.71875  1.0000
  O   O6590     1.0  0.6875000000000002  0.9062499999999998  0.71875  1.0000
  O   O6591     1.0  0.6875000000000002  0.9687499999999998  0.71875  1.0000
  O   O6592     1.0  0.6875000000000002  0.031249999999999993  0.71875  1.0000
  O   O6593     1.0  0.71875  0.062499999999999986  0.6875000000000001  1.0000
  O   O6594     1.0  0.71875  0.12499999999999997  0.6875000000000001  1.0000
  O   O6595     1.0  0.71875  0.18749999999999997  0.6875000000000001  1.0000
  O   O6596     1.0  0.71875  0.24999999999999994  0.6875000000000001  1.0000
  O   O6597     1.0  0.71875  0.3124999999999999  0.6875000000000001  1.0000
  O   O6598     1.0  0.71875  0.3749999999999999  0.6875000000000001  1.0000
  O   O6599     1.0  0.71875  0.4374999999999999  0.6875000000000001  1.0000
  O   O6600     1.0  0.71875  0.49999999999999983  0.6875000000000001  1.0000
  O   O6601     1.0  0.71875  0.5624999999999998  0.6875000000000001  1.0000
  O   O6602     1.0  0.71875  0.625  0.6875000000000001  1.0000
  O   O6603     1.0  0.71875  0.6875  0.6875000000000001  1.0000
  O   O6604     1.0  0.71875  0.7499999999999999  0.6875000000000001  1.0000
  O   O6605     1.0  0.71875  0.8124999999999998  0.6875000000000001  1.0000
  O   O6606     1.0  0.71875  0.8749999999999998  0.6875000000000001  1.0000
  O   O6607     1.0  0.71875  0.9374999999999998  0.6875000000000001  1.0000
  O   O6608     1.0  0.71875  0.0  0.6875000000000001  1.0000
  O   O6609     1.0  0.75  0.09374999999999999  0.6562500000000001  1.0000
  O   O6610     1.0  0.75  0.15625  0.6562500000000001  1.0000
  O   O6611     1.0  0.75  0.21874999999999994  0.6562500000000001  1.0000
  O   O6612     1.0  0.75  0.28125  0.6562500000000001  1.0000
  O   O6613     1.0  0.75  0.34375  0.6562500000000001  1.0000
  O   O6614     1.0  0.75  0.4062499999999999  0.6562500000000001  1.0000
  O   O6615     1.0  0.75  0.4687499999999999  0.6562500000000001  1.0000
  O   O6616     1.0  0.75  0.53125  0.6562500000000001  1.0000
  O   O6617     1.0  0.75  0.5937499999999998  0.6562500000000001  1.0000
  O   O6618     1.0  0.75  0.6562499999999998  0.6562500000000001  1.0000
  O   O6619     1.0  0.75  0.7187499999999999  0.6562500000000001  1.0000
  O   O6620     1.0  0.75  0.7812499999999999  0.6562500000000001  1.0000
  O   O6621     1.0  0.75  0.8437499999999998  0.6562500000000001  1.0000
  O   O6622     1.0  0.75  0.9062499999999998  0.6562500000000001  1.0000
  O   O6623     1.0  0.75  0.9687499999999998  0.6562500000000001  1.0000
  O   O6624     1.0  0.75  0.031249999999999993  0.6562500000000001  1.0000
  O   O6625     1.0  0.7812499999999998  0.062499999999999986  0.6250000000000001  1.0000
  O   O6626     1.0  0.7812499999999998  0.12499999999999997  0.6250000000000001  1.0000
  O   O6627     1.0  0.7812499999999998  0.18749999999999997  0.6250000000000001  1.0000
  O   O6628     1.0  0.7812499999999998  0.24999999999999994  0.6250000000000001  1.0000
  O   O6629     1.0  0.7812499999999998  0.3124999999999999  0.6250000000000001  1.0000
  O   O6630     1.0  0.7812499999999998  0.3749999999999999  0.6250000000000001  1.0000
  O   O6631     1.0  0.7812499999999998  0.4374999999999999  0.6250000000000001  1.0000
  O   O6632     1.0  0.7812499999999998  0.49999999999999983  0.6250000000000001  1.0000
  O   O6633     1.0  0.7812499999999998  0.5624999999999998  0.6250000000000001  1.0000
  O   O6634     1.0  0.7812499999999998  0.625  0.6250000000000001  1.0000
  O   O6635     1.0  0.7812499999999998  0.6875  0.6250000000000001  1.0000
  O   O6636     1.0  0.7812499999999998  0.7499999999999999  0.6250000000000001  1.0000
  O   O6637     1.0  0.7812499999999998  0.8125000000000001  0.6250000000000001  1.0000
  O   O6638     1.0  0.7812499999999998  0.8749999999999998  0.6250000000000001  1.0000
  O   O6639     1.0  0.7812499999999998  0.9374999999999998  0.6250000000000001  1.0000
  O   O6640     1.0  0.7812499999999998  0.0  0.6250000000000001  1.0000
  O   O6641     1.0  0.8124999999999999  0.09374999999999999  0.5937499999999998  1.0000
  O   O6642     1.0  0.8124999999999999  0.15625  0.5937499999999998  1.0000
  O   O6643     1.0  0.8124999999999999  0.21874999999999994  0.5937499999999998  1.0000
  O   O6644     1.0  0.8124999999999999  0.28125  0.5937499999999998  1.0000
  O   O6645     1.0  0.8124999999999999  0.34375  0.5937499999999998  1.0000
  O   O6646     1.0  0.8124999999999999  0.4062499999999999  0.5937499999999998  1.0000
  O   O6647     1.0  0.8124999999999999  0.4687499999999999  0.5937499999999998  1.0000
  O   O6648     1.0  0.8124999999999999  0.5312499999999999  0.5937499999999998  1.0000
  O   O6649     1.0  0.8124999999999999  0.5937499999999998  0.5937499999999998  1.0000
  O   O6650     1.0  0.8124999999999999  0.6562499999999998  0.5937499999999998  1.0000
  O   O6651     1.0  0.8124999999999999  0.7187499999999999  0.5937499999999998  1.0000
  O   O6652     1.0  0.8124999999999999  0.7812499999999999  0.5937499999999998  1.0000
  O   O6653     1.0  0.8124999999999999  0.8437499999999998  0.5937499999999998  1.0000
  O   O6654     1.0  0.8124999999999999  0.9062499999999998  0.5937499999999998  1.0000
  O   O6655     1.0  0.8124999999999999  0.9687499999999998  0.5937499999999998  1.0000
  O   O6656     1.0  0.8124999999999999  0.031249999999999993  0.5937499999999998  1.0000
  O   O6657     1.0  0.8437500000000001  0.062499999999999986  0.5625000000000001  1.0000
  O   O6658     1.0  0.8437500000000001  0.12499999999999997  0.5625000000000001  1.0000
  O   O6659     1.0  0.8437500000000001  0.18749999999999997  0.5625000000000001  1.0000
  O   O6660     1.0  0.8437500000000001  0.24999999999999994  0.5625000000000001  1.0000
  O   O6661     1.0  0.8437500000000001  0.3124999999999999  0.5625000000000001  1.0000
  O   O6662     1.0  0.8437500000000001  0.3749999999999999  0.5625000000000001  1.0000
  O   O6663     1.0  0.8437500000000001  0.4374999999999999  0.5625000000000001  1.0000
  O   O6664     1.0  0.8437500000000001  0.4999999999999999  0.5625000000000001  1.0000
  O   O6665     1.0  0.8437500000000001  0.5625  0.5625000000000001  1.0000
  O   O6666     1.0  0.8437500000000001  0.625  0.5625000000000001  1.0000
  O   O6667     1.0  0.8437500000000001  0.6874999999999998  0.5625000000000001  1.0000
  O   O6668     1.0  0.8437500000000001  0.7499999999999999  0.5625000000000001  1.0000
  O   O6669     1.0  0.8437500000000001  0.8125000000000001  0.5625000000000001  1.0000
  O   O6670     1.0  0.8437500000000001  0.8749999999999998  0.5625000000000001  1.0000
  O   O6671     1.0  0.8437500000000001  0.9374999999999998  0.5625000000000001  1.0000
  O   O6672     1.0  0.8437500000000001  0.9999999999999999  0.5625000000000001  1.0000
  O   O6673     1.0  0.8749999999999999  0.09374999999999999  0.53125  1.0000
  O   O6674     1.0  0.8749999999999999  0.15625  0.53125  1.0000
  O   O6675     1.0  0.8749999999999999  0.21874999999999994  0.53125  1.0000
  O   O6676     1.0  0.8749999999999999  0.28125  0.53125  1.0000
  O   O6677     1.0  0.8749999999999999  0.34375  0.53125  1.0000
  O   O6678     1.0  0.8749999999999999  0.4062499999999999  0.53125  1.0000
  O   O6679     1.0  0.8749999999999999  0.4687499999999999  0.53125  1.0000
  O   O6680     1.0  0.8749999999999999  0.5312499999999999  0.53125  1.0000
  O   O6681     1.0  0.8749999999999999  0.5937499999999998  0.53125  1.0000
  O   O6682     1.0  0.8749999999999999  0.6562499999999998  0.53125  1.0000
  O   O6683     1.0  0.8749999999999999  0.7187499999999999  0.53125  1.0000
  O   O6684     1.0  0.8749999999999999  0.7812499999999999  0.53125  1.0000
  O   O6685     1.0  0.8749999999999999  0.8437499999999998  0.53125  1.0000
  O   O6686     1.0  0.8749999999999999  0.9062499999999998  0.53125  1.0000
  O   O6687     1.0  0.8749999999999999  0.9687499999999998  0.53125  1.0000
  O   O6688     1.0  0.8749999999999999  0.031249999999999993  0.53125  1.0000
  O   O6689     1.0  0.9062500000000002  0.062499999999999986  0.5  1.0000
  O   O6690     1.0  0.9062500000000002  0.12499999999999997  0.5  1.0000
  O   O6691     1.0  0.9062500000000002  0.18749999999999997  0.5  1.0000
  O   O6692     1.0  0.9062500000000002  0.24999999999999983  0.5  1.0000
  O   O6693     1.0  0.9062500000000002  0.3124999999999999  0.5  1.0000
  O   O6694     1.0  0.9062500000000002  0.37499999999999994  0.5  1.0000
  O   O6695     1.0  0.9062500000000002  0.4374999999999999  0.5  1.0000
  O   O6696     1.0  0.9062500000000002  0.4999999999999999  0.5  1.0000
  O   O6697     1.0  0.9062500000000002  0.5625  0.5  1.0000
  O   O6698     1.0  0.9062500000000002  0.625  0.5  1.0000
  O   O6699     1.0  0.9062500000000002  0.6874999999999998  0.5  1.0000
  O   O6700     1.0  0.9062500000000002  0.7499999999999999  0.5  1.0000
  O   O6701     1.0  0.9062500000000002  0.8124999999999998  0.5  1.0000
  O   O6702     1.0  0.9062500000000002  0.8749999999999998  0.5  1.0000
  O   O6703     1.0  0.9062500000000002  0.9374999999999998  0.5  1.0000
  O   O6704     1.0  0.9062500000000002  0.9999999999999999  0.5  1.0000
  O   O6705     1.0  0.9375  0.09374999999999999  0.4687499999999999  1.0000
  O   O6706     1.0  0.9375  0.15625  0.4687499999999999  1.0000
  O   O6707     1.0  0.9375  0.21874999999999994  0.4687499999999999  1.0000
  O   O6708     1.0  0.9375  0.28125  0.4687499999999999  1.0000
  O   O6709     1.0  0.9375  0.3437499999999999  0.4687499999999999  1.0000
  O   O6710     1.0  0.9375  0.4062499999999999  0.4687499999999999  1.0000
  O   O6711     1.0  0.9375  0.4687499999999999  0.4687499999999999  1.0000
  O   O6712     1.0  0.9375  0.5312499999999999  0.4687499999999999  1.0000
  O   O6713     1.0  0.9375  0.5937499999999998  0.4687499999999999  1.0000
  O   O6714     1.0  0.9375  0.6562499999999998  0.4687499999999999  1.0000
  O   O6715     1.0  0.9375  0.7187499999999999  0.4687499999999999  1.0000
  O   O6716     1.0  0.9375  0.7812499999999999  0.4687499999999999  1.0000
  O   O6717     1.0  0.9375  0.8437499999999998  0.4687499999999999  1.0000
  O   O6718     1.0  0.9375  0.9062499999999998  0.4687499999999999  1.0000
  O   O6719     1.0  0.9375  0.9687499999999998  0.4687499999999999  1.0000
  O   O6720     1.0  0.9375  0.031249999999999993  0.4687499999999999  1.0000
  O   O6721     1.0  0.9687500000000001  0.062499999999999986  0.43749999999999994  1.0000
  O   O6722     1.0  0.9687500000000001  0.12499999999999997  0.43749999999999994  1.0000
  O   O6723     1.0  0.9687500000000001  0.18749999999999997  0.43749999999999994  1.0000
  O   O6724     1.0  0.9687500000000001  0.24999999999999983  0.43749999999999994  1.0000
  O   O6725     1.0  0.9687500000000001  0.3125  0.43749999999999994  1.0000
  O   O6726     1.0  0.9687500000000001  0.37499999999999994  0.43749999999999994  1.0000
  O   O6727     1.0  0.9687500000000001  0.4374999999999999  0.43749999999999994  1.0000
  O   O6728     1.0  0.9687500000000001  0.49999999999999983  0.43749999999999994  1.0000
  O   O6729     1.0  0.9687500000000001  0.5625  0.43749999999999994  1.0000
  O   O6730     1.0  0.9687500000000001  0.6249999999999998  0.43749999999999994  1.0000
  O   O6731     1.0  0.9687500000000001  0.6874999999999998  0.43749999999999994  1.0000
  O   O6732     1.0  0.9687500000000001  0.7499999999999999  0.43749999999999994  1.0000
  O   O6733     1.0  0.9687500000000001  0.8124999999999998  0.43749999999999994  1.0000
  O   O6734     1.0  0.9687500000000001  0.8749999999999998  0.43749999999999994  1.0000
  O   O6735     1.0  0.9687500000000001  0.9374999999999998  0.43749999999999994  1.0000
  O   O6736     1.0  0.9687500000000001  0.9999999999999999  0.43749999999999994  1.0000
  O   O6737     1.0  0.9999999999999999  0.09374999999999999  0.40625000000000017  1.0000
  O   O6738     1.0  0.9999999999999999  0.15625  0.40625000000000017  1.0000
  O   O6739     1.0  0.9999999999999999  0.21874999999999994  0.40625000000000017  1.0000
  O   O6740     1.0  0.9999999999999999  0.28125  0.40625000000000017  1.0000
  O   O6741     1.0  0.9999999999999999  0.3437499999999999  0.40625000000000017  1.0000
  O   O6742     1.0  0.9999999999999999  0.4062499999999999  0.40625000000000017  1.0000
  O   O6743     1.0  0.9999999999999999  0.4687499999999999  0.40625000000000017  1.0000
  O   O6744     1.0  0.9999999999999999  0.5312499999999999  0.40625000000000017  1.0000
  O   O6745     1.0  0.9999999999999999  0.59375  0.40625000000000017  1.0000
  O   O6746     1.0  0.9999999999999999  0.65625  0.40625000000000017  1.0000
  O   O6747     1.0  0.9999999999999999  0.7187499999999999  0.40625000000000017  1.0000
  O   O6748     1.0  0.9999999999999999  0.7812499999999999  0.40625000000000017  1.0000
  O   O6749     1.0  0.9999999999999999  0.8437499999999998  0.40625000000000017  1.0000
  O   O6750     1.0  0.9999999999999999  0.9062499999999998  0.40625000000000017  1.0000
  O   O6751     1.0  0.9999999999999999  0.9687499999999998  0.40625000000000017  1.0000
  O   O6752     1.0  0.9999999999999999  0.031249999999999993  0.40625000000000017  1.0000
  O   O6753     1.0  0.4687499999999999  0.062499999999999986  0.9999999999999999  1.0000
  O   O6754     1.0  0.4687499999999999  0.12499999999999997  0.9999999999999999  1.0000
  O   O6755     1.0  0.4687499999999999  0.18749999999999997  0.9999999999999999  1.0000
  O   O6756     1.0  0.4687499999999999  0.24999999999999983  0.9999999999999999  1.0000
  O   O6757     1.0  0.4687499999999999  0.3125  0.9999999999999999  1.0000
  O   O6758     1.0  0.4687499999999999  0.37499999999999994  0.9999999999999999  1.0000
  O   O6759     1.0  0.4687499999999999  0.4374999999999999  0.9999999999999999  1.0000
  O   O6760     1.0  0.4687499999999999  0.49999999999999983  0.9999999999999999  1.0000
  O   O6761     1.0  0.4687499999999999  0.5625  0.9999999999999999  1.0000
  O   O6762     1.0  0.4687499999999999  0.6249999999999998  0.9999999999999999  1.0000
  O   O6763     1.0  0.4687499999999999  0.6875  0.9999999999999999  1.0000
  O   O6764     1.0  0.4687499999999999  0.7500000000000001  0.9999999999999999  1.0000
  O   O6765     1.0  0.4687499999999999  0.8124999999999998  0.9999999999999999  1.0000
  O   O6766     1.0  0.4687499999999999  0.8749999999999998  0.9999999999999999  1.0000
  O   O6767     1.0  0.4687499999999999  0.9374999999999998  0.9999999999999999  1.0000
  O   O6768     1.0  0.4687499999999999  0.0  0.9999999999999999  1.0000
  O   O6769     1.0  0.49999999999999994  0.09374999999999999  0.9687500000000001  1.0000
  O   O6770     1.0  0.49999999999999994  0.15625  0.9687500000000001  1.0000
  O   O6771     1.0  0.49999999999999994  0.21874999999999994  0.9687500000000001  1.0000
  O   O6772     1.0  0.49999999999999994  0.28125  0.9687500000000001  1.0000
  O   O6773     1.0  0.49999999999999994  0.3437499999999999  0.9687500000000001  1.0000
  O   O6774     1.0  0.49999999999999994  0.4062499999999999  0.9687500000000001  1.0000
  O   O6775     1.0  0.49999999999999994  0.4687499999999999  0.9687500000000001  1.0000
  O   O6776     1.0  0.49999999999999994  0.5312499999999999  0.9687500000000001  1.0000
  O   O6777     1.0  0.49999999999999994  0.5937499999999998  0.9687500000000001  1.0000
  O   O6778     1.0  0.49999999999999994  0.65625  0.9687500000000001  1.0000
  O   O6779     1.0  0.49999999999999994  0.7187499999999999  0.9687500000000001  1.0000
  O   O6780     1.0  0.49999999999999994  0.7812499999999999  0.9687500000000001  1.0000
  O   O6781     1.0  0.49999999999999994  0.8437500000000001  0.9687500000000001  1.0000
  O   O6782     1.0  0.49999999999999994  0.9062499999999998  0.9687500000000001  1.0000
  O   O6783     1.0  0.49999999999999994  0.9687499999999998  0.9687500000000001  1.0000
  O   O6784     1.0  0.49999999999999994  0.031249999999999993  0.9687500000000001  1.0000
  O   O6785     1.0  0.53125  0.062499999999999986  0.9375000000000001  1.0000
  O   O6786     1.0  0.53125  0.12499999999999997  0.9375000000000001  1.0000
  O   O6787     1.0  0.53125  0.18749999999999997  0.9375000000000001  1.0000
  O   O6788     1.0  0.53125  0.24999999999999994  0.9375000000000001  1.0000
  O   O6789     1.0  0.53125  0.3125  0.9375000000000001  1.0000
  O   O6790     1.0  0.53125  0.37499999999999994  0.9375000000000001  1.0000
  O   O6791     1.0  0.53125  0.4374999999999999  0.9375000000000001  1.0000
  O   O6792     1.0  0.53125  0.49999999999999983  0.9375000000000001  1.0000
  O   O6793     1.0  0.53125  0.5624999999999998  0.9375000000000001  1.0000
  O   O6794     1.0  0.53125  0.6249999999999998  0.9375000000000001  1.0000
  O   O6795     1.0  0.53125  0.6875  0.9375000000000001  1.0000
  O   O6796     1.0  0.53125  0.7499999999999999  0.9375000000000001  1.0000
  O   O6797     1.0  0.53125  0.8124999999999998  0.9375000000000001  1.0000
  O   O6798     1.0  0.53125  0.8749999999999998  0.9375000000000001  1.0000
  O   O6799     1.0  0.53125  0.9374999999999998  0.9375000000000001  1.0000
  O   O6800     1.0  0.53125  0.0  0.9375000000000001  1.0000
  O   O6801     1.0  0.5624999999999999  0.09374999999999999  0.9062500000000001  1.0000
  O   O6802     1.0  0.5624999999999999  0.15625  0.9062500000000001  1.0000
  O   O6803     1.0  0.5624999999999999  0.21874999999999994  0.9062500000000001  1.0000
  O   O6804     1.0  0.5624999999999999  0.2812499999999999  0.9062500000000001  1.0000
  O   O6805     1.0  0.5624999999999999  0.3437499999999999  0.9062500000000001  1.0000
  O   O6806     1.0  0.5624999999999999  0.4062499999999999  0.9062500000000001  1.0000
  O   O6807     1.0  0.5624999999999999  0.4687499999999999  0.9062500000000001  1.0000
  O   O6808     1.0  0.5624999999999999  0.53125  0.9062500000000001  1.0000
  O   O6809     1.0  0.5624999999999999  0.59375  0.9062500000000001  1.0000
  O   O6810     1.0  0.5624999999999999  0.65625  0.9062500000000001  1.0000
  O   O6811     1.0  0.5624999999999999  0.7187499999999999  0.9062500000000001  1.0000
  O   O6812     1.0  0.5624999999999999  0.7812499999999999  0.9062500000000001  1.0000
  O   O6813     1.0  0.5624999999999999  0.8437500000000001  0.9062500000000001  1.0000
  O   O6814     1.0  0.5624999999999999  0.9062499999999998  0.9062500000000001  1.0000
  O   O6815     1.0  0.5624999999999999  0.9687499999999998  0.9062500000000001  1.0000
  O   O6816     1.0  0.5624999999999999  0.031249999999999993  0.9062500000000001  1.0000
  O   O6817     1.0  0.5937499999999999  0.062499999999999986  0.875  1.0000
  O   O6818     1.0  0.5937499999999999  0.12499999999999997  0.875  1.0000
  O   O6819     1.0  0.5937499999999999  0.18749999999999997  0.875  1.0000
  O   O6820     1.0  0.5937499999999999  0.24999999999999994  0.875  1.0000
  O   O6821     1.0  0.5937499999999999  0.3125  0.875  1.0000
  O   O6822     1.0  0.5937499999999999  0.37499999999999994  0.875  1.0000
  O   O6823     1.0  0.5937499999999999  0.4374999999999999  0.875  1.0000
  O   O6824     1.0  0.5937499999999999  0.49999999999999983  0.875  1.0000
  O   O6825     1.0  0.5937499999999999  0.5624999999999998  0.875  1.0000
  O   O6826     1.0  0.5937499999999999  0.6249999999999998  0.875  1.0000
  O   O6827     1.0  0.5937499999999999  0.6875  0.875  1.0000
  O   O6828     1.0  0.5937499999999999  0.7499999999999999  0.875  1.0000
  O   O6829     1.0  0.5937499999999999  0.8124999999999998  0.875  1.0000
  O   O6830     1.0  0.5937499999999999  0.8749999999999998  0.875  1.0000
  O   O6831     1.0  0.5937499999999999  0.9374999999999998  0.875  1.0000
  O   O6832     1.0  0.5937499999999999  0.0  0.875  1.0000
  O   O6833     1.0  0.6250000000000002  0.09374999999999999  0.84375  1.0000
  O   O6834     1.0  0.6250000000000002  0.15625  0.84375  1.0000
  O   O6835     1.0  0.6250000000000002  0.21874999999999994  0.84375  1.0000
  O   O6836     1.0  0.6250000000000002  0.2812499999999999  0.84375  1.0000
  O   O6837     1.0  0.6250000000000002  0.3437499999999999  0.84375  1.0000
  O   O6838     1.0  0.6250000000000002  0.4062499999999999  0.84375  1.0000
  O   O6839     1.0  0.6250000000000002  0.4687499999999999  0.84375  1.0000
  O   O6840     1.0  0.6250000000000002  0.53125  0.84375  1.0000
  O   O6841     1.0  0.6250000000000002  0.59375  0.84375  1.0000
  O   O6842     1.0  0.6250000000000002  0.6562499999999998  0.84375  1.0000
  O   O6843     1.0  0.6250000000000002  0.7187499999999999  0.84375  1.0000
  O   O6844     1.0  0.6250000000000002  0.7812499999999999  0.84375  1.0000
  O   O6845     1.0  0.6250000000000002  0.8437499999999998  0.84375  1.0000
  O   O6846     1.0  0.6250000000000002  0.9062499999999998  0.84375  1.0000
  O   O6847     1.0  0.6250000000000002  0.9687499999999998  0.84375  1.0000
  O   O6848     1.0  0.6250000000000002  0.031249999999999993  0.84375  1.0000
  O   O6849     1.0  0.65625  0.062499999999999986  0.8125  1.0000
  O   O6850     1.0  0.65625  0.12499999999999997  0.8125  1.0000
  O   O6851     1.0  0.65625  0.18749999999999997  0.8125  1.0000
  O   O6852     1.0  0.65625  0.24999999999999994  0.8125  1.0000
  O   O6853     1.0  0.65625  0.3125  0.8125  1.0000
  O   O6854     1.0  0.65625  0.3749999999999999  0.8125  1.0000
  O   O6855     1.0  0.65625  0.4374999999999999  0.8125  1.0000
  O   O6856     1.0  0.65625  0.49999999999999983  0.8125  1.0000
  O   O6857     1.0  0.65625  0.5624999999999998  0.8125  1.0000
  O   O6858     1.0  0.65625  0.6249999999999998  0.8125  1.0000
  O   O6859     1.0  0.65625  0.6875  0.8125  1.0000
  O   O6860     1.0  0.65625  0.7499999999999999  0.8125  1.0000
  O   O6861     1.0  0.65625  0.8124999999999998  0.8125  1.0000
  O   O6862     1.0  0.65625  0.8749999999999998  0.8125  1.0000
  O   O6863     1.0  0.65625  0.9374999999999998  0.8125  1.0000
  O   O6864     1.0  0.65625  0.0  0.8125  1.0000
  O   O6865     1.0  0.6875000000000002  0.09374999999999999  0.7812500000000002  1.0000
  O   O6866     1.0  0.6875000000000002  0.15625  0.7812500000000002  1.0000
  O   O6867     1.0  0.6875000000000002  0.21874999999999994  0.7812500000000002  1.0000
  O   O6868     1.0  0.6875000000000002  0.2812499999999999  0.7812500000000002  1.0000
  O   O6869     1.0  0.6875000000000002  0.34375  0.7812500000000002  1.0000
  O   O6870     1.0  0.6875000000000002  0.4062499999999999  0.7812500000000002  1.0000
  O   O6871     1.0  0.6875000000000002  0.4687499999999999  0.7812500000000002  1.0000
  O   O6872     1.0  0.6875000000000002  0.53125  0.7812500000000002  1.0000
  O   O6873     1.0  0.6875000000000002  0.59375  0.7812500000000002  1.0000
  O   O6874     1.0  0.6875000000000002  0.6562499999999998  0.7812500000000002  1.0000
  O   O6875     1.0  0.6875000000000002  0.7187499999999999  0.7812500000000002  1.0000
  O   O6876     1.0  0.6875000000000002  0.7812499999999999  0.7812500000000002  1.0000
  O   O6877     1.0  0.6875000000000002  0.8437499999999998  0.7812500000000002  1.0000
  O   O6878     1.0  0.6875000000000002  0.9062499999999998  0.7812500000000002  1.0000
  O   O6879     1.0  0.6875000000000002  0.9687499999999998  0.7812500000000002  1.0000
  O   O6880     1.0  0.6875000000000002  0.031249999999999993  0.7812500000000002  1.0000
  O   O6881     1.0  0.71875  0.062499999999999986  0.75  1.0000
  O   O6882     1.0  0.71875  0.12499999999999997  0.75  1.0000
  O   O6883     1.0  0.71875  0.18749999999999997  0.75  1.0000
  O   O6884     1.0  0.71875  0.24999999999999994  0.75  1.0000
  O   O6885     1.0  0.71875  0.3124999999999999  0.75  1.0000
  O   O6886     1.0  0.71875  0.3749999999999999  0.75  1.0000
  O   O6887     1.0  0.71875  0.4374999999999999  0.75  1.0000
  O   O6888     1.0  0.71875  0.49999999999999983  0.75  1.0000
  O   O6889     1.0  0.71875  0.5624999999999998  0.75  1.0000
  O   O6890     1.0  0.71875  0.625  0.75  1.0000
  O   O6891     1.0  0.71875  0.6875  0.75  1.0000
  O   O6892     1.0  0.71875  0.7499999999999999  0.75  1.0000
  O   O6893     1.0  0.71875  0.8124999999999998  0.75  1.0000
  O   O6894     1.0  0.71875  0.8749999999999998  0.75  1.0000
  O   O6895     1.0  0.71875  0.9374999999999998  0.75  1.0000
  O   O6896     1.0  0.71875  0.0  0.75  1.0000
  O   O6897     1.0  0.75  0.09374999999999999  0.71875  1.0000
  O   O6898     1.0  0.75  0.15625  0.71875  1.0000
  O   O6899     1.0  0.75  0.21874999999999994  0.71875  1.0000
  O   O6900     1.0  0.75  0.28125  0.71875  1.0000
  O   O6901     1.0  0.75  0.34375  0.71875  1.0000
  O   O6902     1.0  0.75  0.4062499999999999  0.71875  1.0000
  O   O6903     1.0  0.75  0.4687499999999999  0.71875  1.0000
  O   O6904     1.0  0.75  0.53125  0.71875  1.0000
  O   O6905     1.0  0.75  0.5937499999999998  0.71875  1.0000
  O   O6906     1.0  0.75  0.6562499999999998  0.71875  1.0000
  O   O6907     1.0  0.75  0.7187499999999999  0.71875  1.0000
  O   O6908     1.0  0.75  0.7812499999999999  0.71875  1.0000
  O   O6909     1.0  0.75  0.8437499999999998  0.71875  1.0000
  O   O6910     1.0  0.75  0.9062499999999998  0.71875  1.0000
  O   O6911     1.0  0.75  0.9687499999999998  0.71875  1.0000
  O   O6912     1.0  0.75  0.031249999999999993  0.71875  1.0000
  O   O6913     1.0  0.7812499999999999  0.062499999999999986  0.6875000000000001  1.0000
  O   O6914     1.0  0.7812499999999999  0.12499999999999997  0.6875000000000001  1.0000
  O   O6915     1.0  0.7812499999999999  0.18749999999999997  0.6875000000000001  1.0000
  O   O6916     1.0  0.7812499999999999  0.24999999999999994  0.6875000000000001  1.0000
  O   O6917     1.0  0.7812499999999999  0.3124999999999999  0.6875000000000001  1.0000
  O   O6918     1.0  0.7812499999999999  0.3749999999999999  0.6875000000000001  1.0000
  O   O6919     1.0  0.7812499999999999  0.4374999999999999  0.6875000000000001  1.0000
  O   O6920     1.0  0.7812499999999999  0.49999999999999983  0.6875000000000001  1.0000
  O   O6921     1.0  0.7812499999999999  0.5624999999999998  0.6875000000000001  1.0000
  O   O6922     1.0  0.7812499999999999  0.625  0.6875000000000001  1.0000
  O   O6923     1.0  0.7812499999999999  0.6875  0.6875000000000001  1.0000
  O   O6924     1.0  0.7812499999999999  0.7499999999999999  0.6875000000000001  1.0000
  O   O6925     1.0  0.7812499999999999  0.8125000000000001  0.6875000000000001  1.0000
  O   O6926     1.0  0.7812499999999999  0.8749999999999998  0.6875000000000001  1.0000
  O   O6927     1.0  0.7812499999999999  0.9374999999999998  0.6875000000000001  1.0000
  O   O6928     1.0  0.7812499999999999  0.0  0.6875000000000001  1.0000
  O   O6929     1.0  0.8124999999999999  0.09374999999999999  0.6562500000000001  1.0000
  O   O6930     1.0  0.8124999999999999  0.15625  0.6562500000000001  1.0000
  O   O6931     1.0  0.8124999999999999  0.21874999999999994  0.6562500000000001  1.0000
  O   O6932     1.0  0.8124999999999999  0.28125  0.6562500000000001  1.0000
  O   O6933     1.0  0.8124999999999999  0.34375  0.6562500000000001  1.0000
  O   O6934     1.0  0.8124999999999999  0.4062499999999999  0.6562500000000001  1.0000
  O   O6935     1.0  0.8124999999999999  0.4687499999999999  0.6562500000000001  1.0000
  O   O6936     1.0  0.8124999999999999  0.5312499999999999  0.6562500000000001  1.0000
  O   O6937     1.0  0.8124999999999999  0.5937499999999998  0.6562500000000001  1.0000
  O   O6938     1.0  0.8124999999999999  0.6562499999999998  0.6562500000000001  1.0000
  O   O6939     1.0  0.8124999999999999  0.7187499999999999  0.6562500000000001  1.0000
  O   O6940     1.0  0.8124999999999999  0.7812499999999999  0.6562500000000001  1.0000
  O   O6941     1.0  0.8124999999999999  0.8437499999999998  0.6562500000000001  1.0000
  O   O6942     1.0  0.8124999999999999  0.9062499999999998  0.6562500000000001  1.0000
  O   O6943     1.0  0.8124999999999999  0.9687499999999998  0.6562500000000001  1.0000
  O   O6944     1.0  0.8124999999999999  0.031249999999999993  0.6562500000000001  1.0000
  O   O6945     1.0  0.8437500000000001  0.062499999999999986  0.6250000000000001  1.0000
  O   O6946     1.0  0.8437500000000001  0.12499999999999997  0.6250000000000001  1.0000
  O   O6947     1.0  0.8437500000000001  0.18749999999999997  0.6250000000000001  1.0000
  O   O6948     1.0  0.8437500000000001  0.24999999999999994  0.6250000000000001  1.0000
  O   O6949     1.0  0.8437500000000001  0.3124999999999999  0.6250000000000001  1.0000
  O   O6950     1.0  0.8437500000000001  0.3749999999999999  0.6250000000000001  1.0000
  O   O6951     1.0  0.8437500000000001  0.4374999999999999  0.6250000000000001  1.0000
  O   O6952     1.0  0.8437500000000001  0.4999999999999999  0.6250000000000001  1.0000
  O   O6953     1.0  0.8437500000000001  0.5625  0.6250000000000001  1.0000
  O   O6954     1.0  0.8437500000000001  0.625  0.6250000000000001  1.0000
  O   O6955     1.0  0.8437500000000001  0.6874999999999998  0.6250000000000001  1.0000
  O   O6956     1.0  0.8437500000000001  0.7499999999999999  0.6250000000000001  1.0000
  O   O6957     1.0  0.8437500000000001  0.8125000000000001  0.6250000000000001  1.0000
  O   O6958     1.0  0.8437500000000001  0.8749999999999998  0.6250000000000001  1.0000
  O   O6959     1.0  0.8437500000000001  0.9374999999999998  0.6250000000000001  1.0000
  O   O6960     1.0  0.8437500000000001  0.9999999999999999  0.6250000000000001  1.0000
  O   O6961     1.0  0.875  0.09374999999999999  0.5937500000000001  1.0000
  O   O6962     1.0  0.875  0.15625  0.5937500000000001  1.0000
  O   O6963     1.0  0.875  0.21874999999999994  0.5937500000000001  1.0000
  O   O6964     1.0  0.875  0.28125  0.5937500000000001  1.0000
  O   O6965     1.0  0.875  0.34375  0.5937500000000001  1.0000
  O   O6966     1.0  0.875  0.4062499999999999  0.5937500000000001  1.0000
  O   O6967     1.0  0.875  0.4687499999999999  0.5937500000000001  1.0000
  O   O6968     1.0  0.875  0.5312499999999999  0.5937500000000001  1.0000
  O   O6969     1.0  0.875  0.5937499999999998  0.5937500000000001  1.0000
  O   O6970     1.0  0.875  0.6562499999999998  0.5937500000000001  1.0000
  O   O6971     1.0  0.875  0.7187499999999999  0.5937500000000001  1.0000
  O   O6972     1.0  0.875  0.7812499999999999  0.5937500000000001  1.0000
  O   O6973     1.0  0.875  0.8437499999999998  0.5937500000000001  1.0000
  O   O6974     1.0  0.875  0.9062499999999998  0.5937500000000001  1.0000
  O   O6975     1.0  0.875  0.9687499999999998  0.5937500000000001  1.0000
  O   O6976     1.0  0.875  0.031249999999999993  0.5937500000000001  1.0000
  O   O6977     1.0  0.9062500000000002  0.062499999999999986  0.5624999999999998  1.0000
  O   O6978     1.0  0.9062500000000002  0.12499999999999997  0.5624999999999998  1.0000
  O   O6979     1.0  0.9062500000000002  0.18749999999999997  0.5624999999999998  1.0000
  O   O6980     1.0  0.9062500000000002  0.24999999999999983  0.5624999999999998  1.0000
  O   O6981     1.0  0.9062500000000002  0.3124999999999999  0.5624999999999998  1.0000
  O   O6982     1.0  0.9062500000000002  0.37499999999999994  0.5624999999999998  1.0000
  O   O6983     1.0  0.9062500000000002  0.4374999999999999  0.5624999999999998  1.0000
  O   O6984     1.0  0.9062500000000002  0.4999999999999999  0.5624999999999998  1.0000
  O   O6985     1.0  0.9062500000000002  0.5625  0.5624999999999998  1.0000
  O   O6986     1.0  0.9062500000000002  0.625  0.5624999999999998  1.0000
  O   O6987     1.0  0.9062500000000002  0.6874999999999998  0.5624999999999998  1.0000
  O   O6988     1.0  0.9062500000000002  0.7499999999999999  0.5624999999999998  1.0000
  O   O6989     1.0  0.9062500000000002  0.8124999999999998  0.5624999999999998  1.0000
  O   O6990     1.0  0.9062500000000002  0.8749999999999998  0.5624999999999998  1.0000
  O   O6991     1.0  0.9062500000000002  0.9374999999999998  0.5624999999999998  1.0000
  O   O6992     1.0  0.9062500000000002  0.9999999999999999  0.5624999999999998  1.0000
  O   O6993     1.0  0.9375  0.09374999999999999  0.53125  1.0000
  O   O6994     1.0  0.9375  0.15625  0.53125  1.0000
  O   O6995     1.0  0.9375  0.21874999999999994  0.53125  1.0000
  O   O6996     1.0  0.9375  0.28125  0.53125  1.0000
  O   O6997     1.0  0.9375  0.3437499999999999  0.53125  1.0000
  O   O6998     1.0  0.9375  0.4062499999999999  0.53125  1.0000
  O   O6999     1.0  0.9375  0.4687499999999999  0.53125  1.0000
  O   O7000     1.0  0.9375  0.5312499999999999  0.53125  1.0000
  O   O7001     1.0  0.9375  0.5937499999999998  0.53125  1.0000
  O   O7002     1.0  0.9375  0.6562499999999998  0.53125  1.0000
  O   O7003     1.0  0.9375  0.7187499999999999  0.53125  1.0000
  O   O7004     1.0  0.9375  0.7812499999999999  0.53125  1.0000
  O   O7005     1.0  0.9375  0.8437499999999998  0.53125  1.0000
  O   O7006     1.0  0.9375  0.9062499999999998  0.53125  1.0000
  O   O7007     1.0  0.9375  0.9687499999999998  0.53125  1.0000
  O   O7008     1.0  0.9375  0.031249999999999993  0.53125  1.0000
  O   O7009     1.0  0.9687500000000002  0.062499999999999986  0.5  1.0000
  O   O7010     1.0  0.9687500000000002  0.12499999999999997  0.5  1.0000
  O   O7011     1.0  0.9687500000000002  0.18749999999999997  0.5  1.0000
  O   O7012     1.0  0.9687500000000002  0.24999999999999983  0.5  1.0000
  O   O7013     1.0  0.9687500000000002  0.3125  0.5  1.0000
  O   O7014     1.0  0.9687500000000002  0.37499999999999994  0.5  1.0000
  O   O7015     1.0  0.9687500000000002  0.4374999999999999  0.5  1.0000
  O   O7016     1.0  0.9687500000000002  0.49999999999999983  0.5  1.0000
  O   O7017     1.0  0.9687500000000002  0.5625  0.5  1.0000
  O   O7018     1.0  0.9687500000000002  0.6249999999999998  0.5  1.0000
  O   O7019     1.0  0.9687500000000002  0.6874999999999998  0.5  1.0000
  O   O7020     1.0  0.9687500000000002  0.7499999999999999  0.5  1.0000
  O   O7021     1.0  0.9687500000000002  0.8124999999999998  0.5  1.0000
  O   O7022     1.0  0.9687500000000002  0.8749999999999998  0.5  1.0000
  O   O7023     1.0  0.9687500000000002  0.9374999999999998  0.5  1.0000
  O   O7024     1.0  0.9687500000000002  0.9999999999999999  0.5  1.0000
  O   O7025     1.0  0.9999999999999999  0.09374999999999999  0.4687499999999999  1.0000
  O   O7026     1.0  0.9999999999999999  0.15625  0.4687499999999999  1.0000
  O   O7027     1.0  0.9999999999999999  0.21874999999999994  0.4687499999999999  1.0000
  O   O7028     1.0  0.9999999999999999  0.28125  0.4687499999999999  1.0000
  O   O7029     1.0  0.9999999999999999  0.3437499999999999  0.4687499999999999  1.0000
  O   O7030     1.0  0.9999999999999999  0.4062499999999999  0.4687499999999999  1.0000
  O   O7031     1.0  0.9999999999999999  0.4687499999999999  0.4687499999999999  1.0000
  O   O7032     1.0  0.9999999999999999  0.5312499999999999  0.4687499999999999  1.0000
  O   O7033     1.0  0.9999999999999999  0.59375  0.4687499999999999  1.0000
  O   O7034     1.0  0.9999999999999999  0.65625  0.4687499999999999  1.0000
  O   O7035     1.0  0.9999999999999999  0.7187499999999999  0.4687499999999999  1.0000
  O   O7036     1.0  0.9999999999999999  0.7812499999999999  0.4687499999999999  1.0000
  O   O7037     1.0  0.9999999999999999  0.8437499999999998  0.4687499999999999  1.0000
  O   O7038     1.0  0.9999999999999999  0.9062499999999998  0.4687499999999999  1.0000
  O   O7039     1.0  0.9999999999999999  0.9687499999999998  0.4687499999999999  1.0000
  O   O7040     1.0  0.9999999999999999  0.031249999999999993  0.4687499999999999  1.0000
  O   O7041     1.0  0.53125  0.062499999999999986  0.0  1.0000
  O   O7042     1.0  0.53125  0.12499999999999997  0.0  1.0000
  O   O7043     1.0  0.53125  0.18749999999999997  0.0  1.0000
  O   O7044     1.0  0.53125  0.24999999999999994  0.0  1.0000
  O   O7045     1.0  0.53125  0.3125  0.0  1.0000
  O   O7046     1.0  0.53125  0.37499999999999994  0.0  1.0000
  O   O7047     1.0  0.53125  0.4374999999999999  0.0  1.0000
  O   O7048     1.0  0.53125  0.49999999999999983  0.0  1.0000
  O   O7049     1.0  0.53125  0.5624999999999998  0.0  1.0000
  O   O7050     1.0  0.53125  0.6249999999999998  0.0  1.0000
  O   O7051     1.0  0.53125  0.6875  0.0  1.0000
  O   O7052     1.0  0.53125  0.7499999999999999  0.0  1.0000
  O   O7053     1.0  0.53125  0.8124999999999998  0.0  1.0000
  O   O7054     1.0  0.53125  0.8749999999999998  0.0  1.0000
  O   O7055     1.0  0.53125  0.9374999999999998  0.0  1.0000
  O   O7056     1.0  0.53125  0.0  0.0  1.0000
  O   O7057     1.0  0.5625  0.09374999999999999  0.9687500000000001  1.0000
  O   O7058     1.0  0.5625  0.15625  0.9687500000000001  1.0000
  O   O7059     1.0  0.5625  0.21874999999999994  0.9687500000000001  1.0000
  O   O7060     1.0  0.5625  0.2812499999999999  0.9687500000000001  1.0000
  O   O7061     1.0  0.5625  0.3437499999999999  0.9687500000000001  1.0000
  O   O7062     1.0  0.5625  0.4062499999999999  0.9687500000000001  1.0000
  O   O7063     1.0  0.5625  0.4687499999999999  0.9687500000000001  1.0000
  O   O7064     1.0  0.5625  0.53125  0.9687500000000001  1.0000
  O   O7065     1.0  0.5625  0.59375  0.9687500000000001  1.0000
  O   O7066     1.0  0.5625  0.65625  0.9687500000000001  1.0000
  O   O7067     1.0  0.5625  0.7187499999999999  0.9687500000000001  1.0000
  O   O7068     1.0  0.5625  0.7812499999999999  0.9687500000000001  1.0000
  O   O7069     1.0  0.5625  0.8437500000000001  0.9687500000000001  1.0000
  O   O7070     1.0  0.5625  0.9062499999999998  0.9687500000000001  1.0000
  O   O7071     1.0  0.5625  0.9687499999999998  0.9687500000000001  1.0000
  O   O7072     1.0  0.5625  0.031249999999999993  0.9687500000000001  1.0000
  O   O7073     1.0  0.59375  0.062499999999999986  0.9375000000000001  1.0000
  O   O7074     1.0  0.59375  0.12499999999999997  0.9375000000000001  1.0000
  O   O7075     1.0  0.59375  0.18749999999999997  0.9375000000000001  1.0000
  O   O7076     1.0  0.59375  0.24999999999999994  0.9375000000000001  1.0000
  O   O7077     1.0  0.59375  0.3125  0.9375000000000001  1.0000
  O   O7078     1.0  0.59375  0.37499999999999994  0.9375000000000001  1.0000
  O   O7079     1.0  0.59375  0.4374999999999999  0.9375000000000001  1.0000
  O   O7080     1.0  0.59375  0.49999999999999983  0.9375000000000001  1.0000
  O   O7081     1.0  0.59375  0.5624999999999998  0.9375000000000001  1.0000
  O   O7082     1.0  0.59375  0.6249999999999998  0.9375000000000001  1.0000
  O   O7083     1.0  0.59375  0.6875  0.9375000000000001  1.0000
  O   O7084     1.0  0.59375  0.7499999999999999  0.9375000000000001  1.0000
  O   O7085     1.0  0.59375  0.8124999999999998  0.9375000000000001  1.0000
  O   O7086     1.0  0.59375  0.8749999999999998  0.9375000000000001  1.0000
  O   O7087     1.0  0.59375  0.9374999999999998  0.9375000000000001  1.0000
  O   O7088     1.0  0.59375  0.0  0.9375000000000001  1.0000
  O   O7089     1.0  0.6250000000000002  0.09374999999999999  0.9062500000000001  1.0000
  O   O7090     1.0  0.6250000000000002  0.15625  0.9062500000000001  1.0000
  O   O7091     1.0  0.6250000000000002  0.21874999999999994  0.9062500000000001  1.0000
  O   O7092     1.0  0.6250000000000002  0.2812499999999999  0.9062500000000001  1.0000
  O   O7093     1.0  0.6250000000000002  0.3437499999999999  0.9062500000000001  1.0000
  O   O7094     1.0  0.6250000000000002  0.4062499999999999  0.9062500000000001  1.0000
  O   O7095     1.0  0.6250000000000002  0.4687499999999999  0.9062500000000001  1.0000
  O   O7096     1.0  0.6250000000000002  0.53125  0.9062500000000001  1.0000
  O   O7097     1.0  0.6250000000000002  0.59375  0.9062500000000001  1.0000
  O   O7098     1.0  0.6250000000000002  0.6562499999999998  0.9062500000000001  1.0000
  O   O7099     1.0  0.6250000000000002  0.7187499999999999  0.9062500000000001  1.0000
  O   O7100     1.0  0.6250000000000002  0.7812499999999999  0.9062500000000001  1.0000
  O   O7101     1.0  0.6250000000000002  0.8437499999999998  0.9062500000000001  1.0000
  O   O7102     1.0  0.6250000000000002  0.9062499999999998  0.9062500000000001  1.0000
  O   O7103     1.0  0.6250000000000002  0.9687499999999998  0.9062500000000001  1.0000
  O   O7104     1.0  0.6250000000000002  0.031249999999999993  0.9062500000000001  1.0000
  O   O7105     1.0  0.65625  0.062499999999999986  0.875  1.0000
  O   O7106     1.0  0.65625  0.12499999999999997  0.875  1.0000
  O   O7107     1.0  0.65625  0.18749999999999997  0.875  1.0000
  O   O7108     1.0  0.65625  0.24999999999999994  0.875  1.0000
  O   O7109     1.0  0.65625  0.3125  0.875  1.0000
  O   O7110     1.0  0.65625  0.3749999999999999  0.875  1.0000
  O   O7111     1.0  0.65625  0.4374999999999999  0.875  1.0000
  O   O7112     1.0  0.65625  0.49999999999999983  0.875  1.0000
  O   O7113     1.0  0.65625  0.5624999999999998  0.875  1.0000
  O   O7114     1.0  0.65625  0.6249999999999998  0.875  1.0000
  O   O7115     1.0  0.65625  0.6875  0.875  1.0000
  O   O7116     1.0  0.65625  0.7499999999999999  0.875  1.0000
  O   O7117     1.0  0.65625  0.8124999999999998  0.875  1.0000
  O   O7118     1.0  0.65625  0.8749999999999998  0.875  1.0000
  O   O7119     1.0  0.65625  0.9374999999999998  0.875  1.0000
  O   O7120     1.0  0.65625  0.0  0.875  1.0000
  O   O7121     1.0  0.6875000000000002  0.09374999999999999  0.84375  1.0000
  O   O7122     1.0  0.6875000000000002  0.15625  0.84375  1.0000
  O   O7123     1.0  0.6875000000000002  0.21874999999999994  0.84375  1.0000
  O   O7124     1.0  0.6875000000000002  0.2812499999999999  0.84375  1.0000
  O   O7125     1.0  0.6875000000000002  0.34375  0.84375  1.0000
  O   O7126     1.0  0.6875000000000002  0.4062499999999999  0.84375  1.0000
  O   O7127     1.0  0.6875000000000002  0.4687499999999999  0.84375  1.0000
  O   O7128     1.0  0.6875000000000002  0.53125  0.84375  1.0000
  O   O7129     1.0  0.6875000000000002  0.59375  0.84375  1.0000
  O   O7130     1.0  0.6875000000000002  0.6562499999999998  0.84375  1.0000
  O   O7131     1.0  0.6875000000000002  0.7187499999999999  0.84375  1.0000
  O   O7132     1.0  0.6875000000000002  0.7812499999999999  0.84375  1.0000
  O   O7133     1.0  0.6875000000000002  0.8437499999999998  0.84375  1.0000
  O   O7134     1.0  0.6875000000000002  0.9062499999999998  0.84375  1.0000
  O   O7135     1.0  0.6875000000000002  0.9687499999999998  0.84375  1.0000
  O   O7136     1.0  0.6875000000000002  0.031249999999999993  0.84375  1.0000
  O   O7137     1.0  0.71875  0.062499999999999986  0.8124999999999999  1.0000
  O   O7138     1.0  0.71875  0.12499999999999997  0.8124999999999999  1.0000
  O   O7139     1.0  0.71875  0.18749999999999997  0.8124999999999999  1.0000
  O   O7140     1.0  0.71875  0.24999999999999994  0.8124999999999999  1.0000
  O   O7141     1.0  0.71875  0.3124999999999999  0.8124999999999999  1.0000
  O   O7142     1.0  0.71875  0.3749999999999999  0.8124999999999999  1.0000
  O   O7143     1.0  0.71875  0.4374999999999999  0.8124999999999999  1.0000
  O   O7144     1.0  0.71875  0.49999999999999983  0.8124999999999999  1.0000
  O   O7145     1.0  0.71875  0.5624999999999998  0.8124999999999999  1.0000
  O   O7146     1.0  0.71875  0.625  0.8124999999999999  1.0000
  O   O7147     1.0  0.71875  0.6875  0.8124999999999999  1.0000
  O   O7148     1.0  0.71875  0.7499999999999999  0.8124999999999999  1.0000
  O   O7149     1.0  0.71875  0.8124999999999998  0.8124999999999999  1.0000
  O   O7150     1.0  0.71875  0.8749999999999998  0.8124999999999999  1.0000
  O   O7151     1.0  0.71875  0.9374999999999998  0.8124999999999999  1.0000
  O   O7152     1.0  0.71875  0.0  0.8124999999999999  1.0000
  O   O7153     1.0  0.75  0.09374999999999999  0.78125  1.0000
  O   O7154     1.0  0.75  0.15625  0.78125  1.0000
  O   O7155     1.0  0.75  0.21874999999999994  0.78125  1.0000
  O   O7156     1.0  0.75  0.28125  0.78125  1.0000
  O   O7157     1.0  0.75  0.34375  0.78125  1.0000
  O   O7158     1.0  0.75  0.4062499999999999  0.78125  1.0000
  O   O7159     1.0  0.75  0.4687499999999999  0.78125  1.0000
  O   O7160     1.0  0.75  0.53125  0.78125  1.0000
  O   O7161     1.0  0.75  0.5937499999999998  0.78125  1.0000
  O   O7162     1.0  0.75  0.6562499999999998  0.78125  1.0000
  O   O7163     1.0  0.75  0.7187499999999999  0.78125  1.0000
  O   O7164     1.0  0.75  0.7812499999999999  0.78125  1.0000
  O   O7165     1.0  0.75  0.8437499999999998  0.78125  1.0000
  O   O7166     1.0  0.75  0.9062499999999998  0.78125  1.0000
  O   O7167     1.0  0.75  0.9687499999999998  0.78125  1.0000
  O   O7168     1.0  0.75  0.031249999999999993  0.78125  1.0000
  O   O7169     1.0  0.7812499999999999  0.062499999999999986  0.7499999999999999  1.0000
  O   O7170     1.0  0.7812499999999999  0.12499999999999997  0.7499999999999999  1.0000
  O   O7171     1.0  0.7812499999999999  0.18749999999999997  0.7499999999999999  1.0000
  O   O7172     1.0  0.7812499999999999  0.24999999999999994  0.7499999999999999  1.0000
  O   O7173     1.0  0.7812499999999999  0.3124999999999999  0.7499999999999999  1.0000
  O   O7174     1.0  0.7812499999999999  0.3749999999999999  0.7499999999999999  1.0000
  O   O7175     1.0  0.7812499999999999  0.4374999999999999  0.7499999999999999  1.0000
  O   O7176     1.0  0.7812499999999999  0.49999999999999983  0.7499999999999999  1.0000
  O   O7177     1.0  0.7812499999999999  0.5624999999999998  0.7499999999999999  1.0000
  O   O7178     1.0  0.7812499999999999  0.625  0.7499999999999999  1.0000
  O   O7179     1.0  0.7812499999999999  0.6875  0.7499999999999999  1.0000
  O   O7180     1.0  0.7812499999999999  0.7499999999999999  0.7499999999999999  1.0000
  O   O7181     1.0  0.7812499999999999  0.8125000000000001  0.7499999999999999  1.0000
  O   O7182     1.0  0.7812499999999999  0.8749999999999998  0.7499999999999999  1.0000
  O   O7183     1.0  0.7812499999999999  0.9374999999999998  0.7499999999999999  1.0000
  O   O7184     1.0  0.7812499999999999  0.0  0.7499999999999999  1.0000
  O   O7185     1.0  0.8124999999999999  0.09374999999999999  0.71875  1.0000
  O   O7186     1.0  0.8124999999999999  0.15625  0.71875  1.0000
  O   O7187     1.0  0.8124999999999999  0.21874999999999994  0.71875  1.0000
  O   O7188     1.0  0.8124999999999999  0.28125  0.71875  1.0000
  O   O7189     1.0  0.8124999999999999  0.34375  0.71875  1.0000
  O   O7190     1.0  0.8124999999999999  0.4062499999999999  0.71875  1.0000
  O   O7191     1.0  0.8124999999999999  0.4687499999999999  0.71875  1.0000
  O   O7192     1.0  0.8124999999999999  0.5312499999999999  0.71875  1.0000
  O   O7193     1.0  0.8124999999999999  0.5937499999999998  0.71875  1.0000
  O   O7194     1.0  0.8124999999999999  0.6562499999999998  0.71875  1.0000
  O   O7195     1.0  0.8124999999999999  0.7187499999999999  0.71875  1.0000
  O   O7196     1.0  0.8124999999999999  0.7812499999999999  0.71875  1.0000
  O   O7197     1.0  0.8124999999999999  0.8437499999999998  0.71875  1.0000
  O   O7198     1.0  0.8124999999999999  0.9062499999999998  0.71875  1.0000
  O   O7199     1.0  0.8124999999999999  0.9687499999999998  0.71875  1.0000
  O   O7200     1.0  0.8124999999999999  0.031249999999999993  0.71875  1.0000
  O   O7201     1.0  0.8437500000000001  0.062499999999999986  0.6875000000000001  1.0000
  O   O7202     1.0  0.8437500000000001  0.12499999999999997  0.6875000000000001  1.0000
  O   O7203     1.0  0.8437500000000001  0.18749999999999997  0.6875000000000001  1.0000
  O   O7204     1.0  0.8437500000000001  0.24999999999999994  0.6875000000000001  1.0000
  O   O7205     1.0  0.8437500000000001  0.3124999999999999  0.6875000000000001  1.0000
  O   O7206     1.0  0.8437500000000001  0.3749999999999999  0.6875000000000001  1.0000
  O   O7207     1.0  0.8437500000000001  0.4374999999999999  0.6875000000000001  1.0000
  O   O7208     1.0  0.8437500000000001  0.4999999999999999  0.6875000000000001  1.0000
  O   O7209     1.0  0.8437500000000001  0.5625  0.6875000000000001  1.0000
  O   O7210     1.0  0.8437500000000001  0.625  0.6875000000000001  1.0000
  O   O7211     1.0  0.8437500000000001  0.6874999999999998  0.6875000000000001  1.0000
  O   O7212     1.0  0.8437500000000001  0.7499999999999999  0.6875000000000001  1.0000
  O   O7213     1.0  0.8437500000000001  0.8125000000000001  0.6875000000000001  1.0000
  O   O7214     1.0  0.8437500000000001  0.8749999999999998  0.6875000000000001  1.0000
  O   O7215     1.0  0.8437500000000001  0.9374999999999998  0.6875000000000001  1.0000
  O   O7216     1.0  0.8437500000000001  0.9999999999999999  0.6875000000000001  1.0000
  O   O7217     1.0  0.8749999999999999  0.09374999999999999  0.6562500000000001  1.0000
  O   O7218     1.0  0.8749999999999999  0.15625  0.6562500000000001  1.0000
  O   O7219     1.0  0.8749999999999999  0.21874999999999994  0.6562500000000001  1.0000
  O   O7220     1.0  0.8749999999999999  0.28125  0.6562500000000001  1.0000
  O   O7221     1.0  0.8749999999999999  0.34375  0.6562500000000001  1.0000
  O   O7222     1.0  0.8749999999999999  0.4062499999999999  0.6562500000000001  1.0000
  O   O7223     1.0  0.8749999999999999  0.4687499999999999  0.6562500000000001  1.0000
  O   O7224     1.0  0.8749999999999999  0.5312499999999999  0.6562500000000001  1.0000
  O   O7225     1.0  0.8749999999999999  0.5937499999999998  0.6562500000000001  1.0000
  O   O7226     1.0  0.8749999999999999  0.6562499999999998  0.6562500000000001  1.0000
  O   O7227     1.0  0.8749999999999999  0.7187499999999999  0.6562500000000001  1.0000
  O   O7228     1.0  0.8749999999999999  0.7812499999999999  0.6562500000000001  1.0000
  O   O7229     1.0  0.8749999999999999  0.8437499999999998  0.6562500000000001  1.0000
  O   O7230     1.0  0.8749999999999999  0.9062499999999998  0.6562500000000001  1.0000
  O   O7231     1.0  0.8749999999999999  0.9687499999999998  0.6562500000000001  1.0000
  O   O7232     1.0  0.8749999999999999  0.031249999999999993  0.6562500000000001  1.0000
  O   O7233     1.0  0.9062500000000002  0.062499999999999986  0.6249999999999999  1.0000
  O   O7234     1.0  0.9062500000000002  0.12499999999999997  0.6249999999999999  1.0000
  O   O7235     1.0  0.9062500000000002  0.18749999999999997  0.6249999999999999  1.0000
  O   O7236     1.0  0.9062500000000002  0.24999999999999983  0.6249999999999999  1.0000
  O   O7237     1.0  0.9062500000000002  0.3124999999999999  0.6249999999999999  1.0000
  O   O7238     1.0  0.9062500000000002  0.37499999999999994  0.6249999999999999  1.0000
  O   O7239     1.0  0.9062500000000002  0.4374999999999999  0.6249999999999999  1.0000
  O   O7240     1.0  0.9062500000000002  0.4999999999999999  0.6249999999999999  1.0000
  O   O7241     1.0  0.9062500000000002  0.5625  0.6249999999999999  1.0000
  O   O7242     1.0  0.9062500000000002  0.625  0.6249999999999999  1.0000
  O   O7243     1.0  0.9062500000000002  0.6874999999999998  0.6249999999999999  1.0000
  O   O7244     1.0  0.9062500000000002  0.7499999999999999  0.6249999999999999  1.0000
  O   O7245     1.0  0.9062500000000002  0.8124999999999998  0.6249999999999999  1.0000
  O   O7246     1.0  0.9062500000000002  0.8749999999999998  0.6249999999999999  1.0000
  O   O7247     1.0  0.9062500000000002  0.9374999999999998  0.6249999999999999  1.0000
  O   O7248     1.0  0.9062500000000002  0.9999999999999999  0.6249999999999999  1.0000
  O   O7249     1.0  0.9375  0.09374999999999999  0.5937499999999998  1.0000
  O   O7250     1.0  0.9375  0.15625  0.5937499999999998  1.0000
  O   O7251     1.0  0.9375  0.21874999999999994  0.5937499999999998  1.0000
  O   O7252     1.0  0.9375  0.28125  0.5937499999999998  1.0000
  O   O7253     1.0  0.9375  0.3437499999999999  0.5937499999999998  1.0000
  O   O7254     1.0  0.9375  0.4062499999999999  0.5937499999999998  1.0000
  O   O7255     1.0  0.9375  0.4687499999999999  0.5937499999999998  1.0000
  O   O7256     1.0  0.9375  0.5312499999999999  0.5937499999999998  1.0000
  O   O7257     1.0  0.9375  0.5937499999999998  0.5937499999999998  1.0000
  O   O7258     1.0  0.9375  0.6562499999999998  0.5937499999999998  1.0000
  O   O7259     1.0  0.9375  0.7187499999999999  0.5937499999999998  1.0000
  O   O7260     1.0  0.9375  0.7812499999999999  0.5937499999999998  1.0000
  O   O7261     1.0  0.9375  0.8437499999999998  0.5937499999999998  1.0000
  O   O7262     1.0  0.9375  0.9062499999999998  0.5937499999999998  1.0000
  O   O7263     1.0  0.9375  0.9687499999999998  0.5937499999999998  1.0000
  O   O7264     1.0  0.9375  0.031249999999999993  0.5937499999999998  1.0000
  O   O7265     1.0  0.9687500000000002  0.062499999999999986  0.5625000000000001  1.0000
  O   O7266     1.0  0.9687500000000002  0.12499999999999997  0.5625000000000001  1.0000
  O   O7267     1.0  0.9687500000000002  0.18749999999999997  0.5625000000000001  1.0000
  O   O7268     1.0  0.9687500000000002  0.24999999999999983  0.5625000000000001  1.0000
  O   O7269     1.0  0.9687500000000002  0.3125  0.5625000000000001  1.0000
  O   O7270     1.0  0.9687500000000002  0.37499999999999994  0.5625000000000001  1.0000
  O   O7271     1.0  0.9687500000000002  0.4374999999999999  0.5625000000000001  1.0000
  O   O7272     1.0  0.9687500000000002  0.49999999999999983  0.5625000000000001  1.0000
  O   O7273     1.0  0.9687500000000002  0.5625  0.5625000000000001  1.0000
  O   O7274     1.0  0.9687500000000002  0.6249999999999998  0.5625000000000001  1.0000
  O   O7275     1.0  0.9687500000000002  0.6874999999999998  0.5625000000000001  1.0000
  O   O7276     1.0  0.9687500000000002  0.7499999999999999  0.5625000000000001  1.0000
  O   O7277     1.0  0.9687500000000002  0.8124999999999998  0.5625000000000001  1.0000
  O   O7278     1.0  0.9687500000000002  0.8749999999999998  0.5625000000000001  1.0000
  O   O7279     1.0  0.9687500000000002  0.9374999999999998  0.5625000000000001  1.0000
  O   O7280     1.0  0.9687500000000002  0.9999999999999999  0.5625000000000001  1.0000
  O   O7281     1.0  0.0  0.09374999999999999  0.53125  1.0000
  O   O7282     1.0  0.0  0.15625  0.53125  1.0000
  O   O7283     1.0  0.0  0.21874999999999994  0.53125  1.0000
  O   O7284     1.0  0.0  0.28125  0.53125  1.0000
  O   O7285     1.0  0.0  0.3437499999999999  0.53125  1.0000
  O   O7286     1.0  0.0  0.4062499999999999  0.53125  1.0000
  O   O7287     1.0  0.0  0.4687499999999999  0.53125  1.0000
  O   O7288     1.0  0.0  0.5312499999999999  0.53125  1.0000
  O   O7289     1.0  0.0  0.59375  0.53125  1.0000
  O   O7290     1.0  0.0  0.65625  0.53125  1.0000
  O   O7291     1.0  0.0  0.7187499999999999  0.53125  1.0000
  O   O7292     1.0  0.0  0.7812499999999999  0.53125  1.0000
  O   O7293     1.0  0.0  0.8437499999999998  0.53125  1.0000
  O   O7294     1.0  0.0  0.9062499999999998  0.53125  1.0000
  O   O7295     1.0  0.0  0.9687499999999998  0.53125  1.0000
  O   O7296     1.0  0.0  0.031249999999999993  0.53125  1.0000
  O   O7297     1.0  0.59375  0.062499999999999986  0.0  1.0000
  O   O7298     1.0  0.59375  0.12499999999999997  0.0  1.0000
  O   O7299     1.0  0.59375  0.18749999999999997  0.0  1.0000
  O   O7300     1.0  0.59375  0.24999999999999994  0.0  1.0000
  O   O7301     1.0  0.59375  0.3125  0.0  1.0000
  O   O7302     1.0  0.59375  0.37499999999999994  0.0  1.0000
  O   O7303     1.0  0.59375  0.4374999999999999  0.0  1.0000
  O   O7304     1.0  0.59375  0.49999999999999983  0.0  1.0000
  O   O7305     1.0  0.59375  0.5624999999999998  0.0  1.0000
  O   O7306     1.0  0.59375  0.6249999999999998  0.0  1.0000
  O   O7307     1.0  0.59375  0.6875  0.0  1.0000
  O   O7308     1.0  0.59375  0.7499999999999999  0.0  1.0000
  O   O7309     1.0  0.59375  0.8124999999999998  0.0  1.0000
  O   O7310     1.0  0.59375  0.8749999999999998  0.0  1.0000
  O   O7311     1.0  0.59375  0.9374999999999998  0.0  1.0000
  O   O7312     1.0  0.59375  0.0  0.0  1.0000
  O   O7313     1.0  0.6250000000000002  0.09374999999999999  0.9687500000000001  1.0000
  O   O7314     1.0  0.6250000000000002  0.15625  0.9687500000000001  1.0000
  O   O7315     1.0  0.6250000000000002  0.21874999999999994  0.9687500000000001  1.0000
  O   O7316     1.0  0.6250000000000002  0.2812499999999999  0.9687500000000001  1.0000
  O   O7317     1.0  0.6250000000000002  0.3437499999999999  0.9687500000000001  1.0000
  O   O7318     1.0  0.6250000000000002  0.4062499999999999  0.9687500000000001  1.0000
  O   O7319     1.0  0.6250000000000002  0.4687499999999999  0.9687500000000001  1.0000
  O   O7320     1.0  0.6250000000000002  0.53125  0.9687500000000001  1.0000
  O   O7321     1.0  0.6250000000000002  0.59375  0.9687500000000001  1.0000
  O   O7322     1.0  0.6250000000000002  0.6562499999999998  0.9687500000000001  1.0000
  O   O7323     1.0  0.6250000000000002  0.7187499999999999  0.9687500000000001  1.0000
  O   O7324     1.0  0.6250000000000002  0.7812499999999999  0.9687500000000001  1.0000
  O   O7325     1.0  0.6250000000000002  0.8437499999999998  0.9687500000000001  1.0000
  O   O7326     1.0  0.6250000000000002  0.9062499999999998  0.9687500000000001  1.0000
  O   O7327     1.0  0.6250000000000002  0.9687499999999998  0.9687500000000001  1.0000
  O   O7328     1.0  0.6250000000000002  0.031249999999999993  0.9687500000000001  1.0000
  O   O7329     1.0  0.65625  0.062499999999999986  0.9375000000000001  1.0000
  O   O7330     1.0  0.65625  0.12499999999999997  0.9375000000000001  1.0000
  O   O7331     1.0  0.65625  0.18749999999999997  0.9375000000000001  1.0000
  O   O7332     1.0  0.65625  0.24999999999999994  0.9375000000000001  1.0000
  O   O7333     1.0  0.65625  0.3125  0.9375000000000001  1.0000
  O   O7334     1.0  0.65625  0.3749999999999999  0.9375000000000001  1.0000
  O   O7335     1.0  0.65625  0.4374999999999999  0.9375000000000001  1.0000
  O   O7336     1.0  0.65625  0.49999999999999983  0.9375000000000001  1.0000
  O   O7337     1.0  0.65625  0.5624999999999998  0.9375000000000001  1.0000
  O   O7338     1.0  0.65625  0.6249999999999998  0.9375000000000001  1.0000
  O   O7339     1.0  0.65625  0.6875  0.9375000000000001  1.0000
  O   O7340     1.0  0.65625  0.7499999999999999  0.9375000000000001  1.0000
  O   O7341     1.0  0.65625  0.8124999999999998  0.9375000000000001  1.0000
  O   O7342     1.0  0.65625  0.8749999999999998  0.9375000000000001  1.0000
  O   O7343     1.0  0.65625  0.9374999999999998  0.9375000000000001  1.0000
  O   O7344     1.0  0.65625  0.0  0.9375000000000001  1.0000
  O   O7345     1.0  0.6875000000000002  0.09374999999999999  0.9062500000000001  1.0000
  O   O7346     1.0  0.6875000000000002  0.15625  0.9062500000000001  1.0000
  O   O7347     1.0  0.6875000000000002  0.21874999999999994  0.9062500000000001  1.0000
  O   O7348     1.0  0.6875000000000002  0.2812499999999999  0.9062500000000001  1.0000
  O   O7349     1.0  0.6875000000000002  0.34375  0.9062500000000001  1.0000
  O   O7350     1.0  0.6875000000000002  0.4062499999999999  0.9062500000000001  1.0000
  O   O7351     1.0  0.6875000000000002  0.4687499999999999  0.9062500000000001  1.0000
  O   O7352     1.0  0.6875000000000002  0.53125  0.9062500000000001  1.0000
  O   O7353     1.0  0.6875000000000002  0.59375  0.9062500000000001  1.0000
  O   O7354     1.0  0.6875000000000002  0.6562499999999998  0.9062500000000001  1.0000
  O   O7355     1.0  0.6875000000000002  0.7187499999999999  0.9062500000000001  1.0000
  O   O7356     1.0  0.6875000000000002  0.7812499999999999  0.9062500000000001  1.0000
  O   O7357     1.0  0.6875000000000002  0.8437499999999998  0.9062500000000001  1.0000
  O   O7358     1.0  0.6875000000000002  0.9062499999999998  0.9062500000000001  1.0000
  O   O7359     1.0  0.6875000000000002  0.9687499999999998  0.9062500000000001  1.0000
  O   O7360     1.0  0.6875000000000002  0.031249999999999993  0.9062500000000001  1.0000
  O   O7361     1.0  0.71875  0.062499999999999986  0.8749999999999999  1.0000
  O   O7362     1.0  0.71875  0.12499999999999997  0.8749999999999999  1.0000
  O   O7363     1.0  0.71875  0.18749999999999997  0.8749999999999999  1.0000
  O   O7364     1.0  0.71875  0.24999999999999994  0.8749999999999999  1.0000
  O   O7365     1.0  0.71875  0.3124999999999999  0.8749999999999999  1.0000
  O   O7366     1.0  0.71875  0.3749999999999999  0.8749999999999999  1.0000
  O   O7367     1.0  0.71875  0.4374999999999999  0.8749999999999999  1.0000
  O   O7368     1.0  0.71875  0.49999999999999983  0.8749999999999999  1.0000
  O   O7369     1.0  0.71875  0.5624999999999998  0.8749999999999999  1.0000
  O   O7370     1.0  0.71875  0.625  0.8749999999999999  1.0000
  O   O7371     1.0  0.71875  0.6875  0.8749999999999999  1.0000
  O   O7372     1.0  0.71875  0.7499999999999999  0.8749999999999999  1.0000
  O   O7373     1.0  0.71875  0.8124999999999998  0.8749999999999999  1.0000
  O   O7374     1.0  0.71875  0.8749999999999998  0.8749999999999999  1.0000
  O   O7375     1.0  0.71875  0.9374999999999998  0.8749999999999999  1.0000
  O   O7376     1.0  0.71875  0.0  0.8749999999999999  1.0000
  O   O7377     1.0  0.75  0.09374999999999999  0.8437499999999999  1.0000
  O   O7378     1.0  0.75  0.15625  0.8437499999999999  1.0000
  O   O7379     1.0  0.75  0.21874999999999994  0.8437499999999999  1.0000
  O   O7380     1.0  0.75  0.28125  0.8437499999999999  1.0000
  O   O7381     1.0  0.75  0.34375  0.8437499999999999  1.0000
  O   O7382     1.0  0.75  0.4062499999999999  0.8437499999999999  1.0000
  O   O7383     1.0  0.75  0.4687499999999999  0.8437499999999999  1.0000
  O   O7384     1.0  0.75  0.53125  0.8437499999999999  1.0000
  O   O7385     1.0  0.75  0.5937499999999998  0.8437499999999999  1.0000
  O   O7386     1.0  0.75  0.6562499999999998  0.8437499999999999  1.0000
  O   O7387     1.0  0.75  0.7187499999999999  0.8437499999999999  1.0000
  O   O7388     1.0  0.75  0.7812499999999999  0.8437499999999999  1.0000
  O   O7389     1.0  0.75  0.8437499999999998  0.8437499999999999  1.0000
  O   O7390     1.0  0.75  0.9062499999999998  0.8437499999999999  1.0000
  O   O7391     1.0  0.75  0.9687499999999998  0.8437499999999999  1.0000
  O   O7392     1.0  0.75  0.031249999999999993  0.8437499999999999  1.0000
  O   O7393     1.0  0.7812499999999999  0.062499999999999986  0.8124999999999999  1.0000
  O   O7394     1.0  0.7812499999999999  0.12499999999999997  0.8124999999999999  1.0000
  O   O7395     1.0  0.7812499999999999  0.18749999999999997  0.8124999999999999  1.0000
  O   O7396     1.0  0.7812499999999999  0.24999999999999994  0.8124999999999999  1.0000
  O   O7397     1.0  0.7812499999999999  0.3124999999999999  0.8124999999999999  1.0000
  O   O7398     1.0  0.7812499999999999  0.3749999999999999  0.8124999999999999  1.0000
  O   O7399     1.0  0.7812499999999999  0.4374999999999999  0.8124999999999999  1.0000
  O   O7400     1.0  0.7812499999999999  0.49999999999999983  0.8124999999999999  1.0000
  O   O7401     1.0  0.7812499999999999  0.5624999999999998  0.8124999999999999  1.0000
  O   O7402     1.0  0.7812499999999999  0.625  0.8124999999999999  1.0000
  O   O7403     1.0  0.7812499999999999  0.6875  0.8124999999999999  1.0000
  O   O7404     1.0  0.7812499999999999  0.7499999999999999  0.8124999999999999  1.0000
  O   O7405     1.0  0.7812499999999999  0.8125000000000001  0.8124999999999999  1.0000
  O   O7406     1.0  0.7812499999999999  0.8749999999999998  0.8124999999999999  1.0000
  O   O7407     1.0  0.7812499999999999  0.9374999999999998  0.8124999999999999  1.0000
  O   O7408     1.0  0.7812499999999999  0.0  0.8124999999999999  1.0000
  O   O7409     1.0  0.8124999999999999  0.09374999999999999  0.7812499999999999  1.0000
  O   O7410     1.0  0.8124999999999999  0.15625  0.7812499999999999  1.0000
  O   O7411     1.0  0.8124999999999999  0.21874999999999994  0.7812499999999999  1.0000
  O   O7412     1.0  0.8124999999999999  0.28125  0.7812499999999999  1.0000
  O   O7413     1.0  0.8124999999999999  0.34375  0.7812499999999999  1.0000
  O   O7414     1.0  0.8124999999999999  0.4062499999999999  0.7812499999999999  1.0000
  O   O7415     1.0  0.8124999999999999  0.4687499999999999  0.7812499999999999  1.0000
  O   O7416     1.0  0.8124999999999999  0.5312499999999999  0.7812499999999999  1.0000
  O   O7417     1.0  0.8124999999999999  0.5937499999999998  0.7812499999999999  1.0000
  O   O7418     1.0  0.8124999999999999  0.6562499999999998  0.7812499999999999  1.0000
  O   O7419     1.0  0.8124999999999999  0.7187499999999999  0.7812499999999999  1.0000
  O   O7420     1.0  0.8124999999999999  0.7812499999999999  0.7812499999999999  1.0000
  O   O7421     1.0  0.8124999999999999  0.8437499999999998  0.7812499999999999  1.0000
  O   O7422     1.0  0.8124999999999999  0.9062499999999998  0.7812499999999999  1.0000
  O   O7423     1.0  0.8124999999999999  0.9687499999999998  0.7812499999999999  1.0000
  O   O7424     1.0  0.8124999999999999  0.031249999999999993  0.7812499999999999  1.0000
  O   O7425     1.0  0.8437500000000001  0.062499999999999986  0.75  1.0000
  O   O7426     1.0  0.8437500000000001  0.12499999999999997  0.75  1.0000
  O   O7427     1.0  0.8437500000000001  0.18749999999999997  0.75  1.0000
  O   O7428     1.0  0.8437500000000001  0.24999999999999994  0.75  1.0000
  O   O7429     1.0  0.8437500000000001  0.3124999999999999  0.75  1.0000
  O   O7430     1.0  0.8437500000000001  0.3749999999999999  0.75  1.0000
  O   O7431     1.0  0.8437500000000001  0.4374999999999999  0.75  1.0000
  O   O7432     1.0  0.8437500000000001  0.4999999999999999  0.75  1.0000
  O   O7433     1.0  0.8437500000000001  0.5625  0.75  1.0000
  O   O7434     1.0  0.8437500000000001  0.625  0.75  1.0000
  O   O7435     1.0  0.8437500000000001  0.6874999999999998  0.75  1.0000
  O   O7436     1.0  0.8437500000000001  0.7499999999999999  0.75  1.0000
  O   O7437     1.0  0.8437500000000001  0.8125000000000001  0.75  1.0000
  O   O7438     1.0  0.8437500000000001  0.8749999999999998  0.75  1.0000
  O   O7439     1.0  0.8437500000000001  0.9374999999999998  0.75  1.0000
  O   O7440     1.0  0.8437500000000001  0.9999999999999999  0.75  1.0000
  O   O7441     1.0  0.8749999999999999  0.09374999999999999  0.71875  1.0000
  O   O7442     1.0  0.8749999999999999  0.15625  0.71875  1.0000
  O   O7443     1.0  0.8749999999999999  0.21874999999999994  0.71875  1.0000
  O   O7444     1.0  0.8749999999999999  0.28125  0.71875  1.0000
  O   O7445     1.0  0.8749999999999999  0.34375  0.71875  1.0000
  O   O7446     1.0  0.8749999999999999  0.4062499999999999  0.71875  1.0000
  O   O7447     1.0  0.8749999999999999  0.4687499999999999  0.71875  1.0000
  O   O7448     1.0  0.8749999999999999  0.5312499999999999  0.71875  1.0000
  O   O7449     1.0  0.8749999999999999  0.5937499999999998  0.71875  1.0000
  O   O7450     1.0  0.8749999999999999  0.6562499999999998  0.71875  1.0000
  O   O7451     1.0  0.8749999999999999  0.7187499999999999  0.71875  1.0000
  O   O7452     1.0  0.8749999999999999  0.7812499999999999  0.71875  1.0000
  O   O7453     1.0  0.8749999999999999  0.8437499999999998  0.71875  1.0000
  O   O7454     1.0  0.8749999999999999  0.9062499999999998  0.71875  1.0000
  O   O7455     1.0  0.8749999999999999  0.9687499999999998  0.71875  1.0000
  O   O7456     1.0  0.8749999999999999  0.031249999999999993  0.71875  1.0000
  O   O7457     1.0  0.9062500000000001  0.062499999999999986  0.6874999999999999  1.0000
  O   O7458     1.0  0.9062500000000001  0.12499999999999997  0.6874999999999999  1.0000
  O   O7459     1.0  0.9062500000000001  0.18749999999999997  0.6874999999999999  1.0000
  O   O7460     1.0  0.9062500000000001  0.24999999999999983  0.6874999999999999  1.0000
  O   O7461     1.0  0.9062500000000001  0.3124999999999999  0.6874999999999999  1.0000
  O   O7462     1.0  0.9062500000000001  0.37499999999999994  0.6874999999999999  1.0000
  O   O7463     1.0  0.9062500000000001  0.4374999999999999  0.6874999999999999  1.0000
  O   O7464     1.0  0.9062500000000001  0.4999999999999999  0.6874999999999999  1.0000
  O   O7465     1.0  0.9062500000000001  0.5625  0.6874999999999999  1.0000
  O   O7466     1.0  0.9062500000000001  0.625  0.6874999999999999  1.0000
  O   O7467     1.0  0.9062500000000001  0.6874999999999998  0.6874999999999999  1.0000
  O   O7468     1.0  0.9062500000000001  0.7499999999999999  0.6874999999999999  1.0000
  O   O7469     1.0  0.9062500000000001  0.8124999999999998  0.6874999999999999  1.0000
  O   O7470     1.0  0.9062500000000001  0.8749999999999998  0.6874999999999999  1.0000
  O   O7471     1.0  0.9062500000000001  0.9374999999999998  0.6874999999999999  1.0000
  O   O7472     1.0  0.9062500000000001  0.9999999999999999  0.6874999999999999  1.0000
  O   O7473     1.0  0.9375  0.09374999999999999  0.6562500000000001  1.0000
  O   O7474     1.0  0.9375  0.15625  0.6562500000000001  1.0000
  O   O7475     1.0  0.9375  0.21874999999999994  0.6562500000000001  1.0000
  O   O7476     1.0  0.9375  0.28125  0.6562500000000001  1.0000
  O   O7477     1.0  0.9375  0.3437499999999999  0.6562500000000001  1.0000
  O   O7478     1.0  0.9375  0.4062499999999999  0.6562500000000001  1.0000
  O   O7479     1.0  0.9375  0.4687499999999999  0.6562500000000001  1.0000
  O   O7480     1.0  0.9375  0.5312499999999999  0.6562500000000001  1.0000
  O   O7481     1.0  0.9375  0.5937499999999998  0.6562500000000001  1.0000
  O   O7482     1.0  0.9375  0.6562499999999998  0.6562500000000001  1.0000
  O   O7483     1.0  0.9375  0.7187499999999999  0.6562500000000001  1.0000
  O   O7484     1.0  0.9375  0.7812499999999999  0.6562500000000001  1.0000
  O   O7485     1.0  0.9375  0.8437499999999998  0.6562500000000001  1.0000
  O   O7486     1.0  0.9375  0.9062499999999998  0.6562500000000001  1.0000
  O   O7487     1.0  0.9375  0.9687499999999998  0.6562500000000001  1.0000
  O   O7488     1.0  0.9375  0.031249999999999993  0.6562500000000001  1.0000
  O   O7489     1.0  0.9687500000000002  0.062499999999999986  0.6250000000000001  1.0000
  O   O7490     1.0  0.9687500000000002  0.12499999999999997  0.6250000000000001  1.0000
  O   O7491     1.0  0.9687500000000002  0.18749999999999997  0.6250000000000001  1.0000
  O   O7492     1.0  0.9687500000000002  0.24999999999999983  0.6250000000000001  1.0000
  O   O7493     1.0  0.9687500000000002  0.3125  0.6250000000000001  1.0000
  O   O7494     1.0  0.9687500000000002  0.37499999999999994  0.6250000000000001  1.0000
  O   O7495     1.0  0.9687500000000002  0.4374999999999999  0.6250000000000001  1.0000
  O   O7496     1.0  0.9687500000000002  0.49999999999999983  0.6250000000000001  1.0000
  O   O7497     1.0  0.9687500000000002  0.5625  0.6250000000000001  1.0000
  O   O7498     1.0  0.9687500000000002  0.6249999999999998  0.6250000000000001  1.0000
  O   O7499     1.0  0.9687500000000002  0.6874999999999998  0.6250000000000001  1.0000
  O   O7500     1.0  0.9687500000000002  0.7499999999999999  0.6250000000000001  1.0000
  O   O7501     1.0  0.9687500000000002  0.8124999999999998  0.6250000000000001  1.0000
  O   O7502     1.0  0.9687500000000002  0.8749999999999998  0.6250000000000001  1.0000
  O   O7503     1.0  0.9687500000000002  0.9374999999999998  0.6250000000000001  1.0000
  O   O7504     1.0  0.9687500000000002  0.9999999999999999  0.6250000000000001  1.0000
  O   O7505     1.0  0.0  0.09374999999999999  0.5937500000000001  1.0000
  O   O7506     1.0  0.0  0.15625  0.5937500000000001  1.0000
  O   O7507     1.0  0.0  0.21874999999999994  0.5937500000000001  1.0000
  O   O7508     1.0  0.0  0.28125  0.5937500000000001  1.0000
  O   O7509     1.0  0.0  0.3437499999999999  0.5937500000000001  1.0000
  O   O7510     1.0  0.0  0.4062499999999999  0.5937500000000001  1.0000
  O   O7511     1.0  0.0  0.4687499999999999  0.5937500000000001  1.0000
  O   O7512     1.0  0.0  0.5312499999999999  0.5937500000000001  1.0000
  O   O7513     1.0  0.0  0.59375  0.5937500000000001  1.0000
  O   O7514     1.0  0.0  0.65625  0.5937500000000001  1.0000
  O   O7515     1.0  0.0  0.7187499999999999  0.5937500000000001  1.0000
  O   O7516     1.0  0.0  0.7812499999999999  0.5937500000000001  1.0000
  O   O7517     1.0  0.0  0.8437499999999998  0.5937500000000001  1.0000
  O   O7518     1.0  0.0  0.9062499999999998  0.5937500000000001  1.0000
  O   O7519     1.0  0.0  0.9687499999999998  0.5937500000000001  1.0000
  O   O7520     1.0  0.0  0.031249999999999993  0.5937500000000001  1.0000
  O   O7521     1.0  0.65625  0.062499999999999986  0.0  1.0000
  O   O7522     1.0  0.65625  0.12499999999999997  0.0  1.0000
  O   O7523     1.0  0.65625  0.18749999999999997  0.0  1.0000
  O   O7524     1.0  0.65625  0.24999999999999994  0.0  1.0000
  O   O7525     1.0  0.65625  0.3125  0.0  1.0000
  O   O7526     1.0  0.65625  0.3749999999999999  0.0  1.0000
  O   O7527     1.0  0.65625  0.4374999999999999  0.0  1.0000
  O   O7528     1.0  0.65625  0.49999999999999983  0.0  1.0000
  O   O7529     1.0  0.65625  0.5624999999999998  0.0  1.0000
  O   O7530     1.0  0.65625  0.6249999999999998  0.0  1.0000
  O   O7531     1.0  0.65625  0.6875  0.0  1.0000
  O   O7532     1.0  0.65625  0.7499999999999999  0.0  1.0000
  O   O7533     1.0  0.65625  0.8124999999999998  0.0  1.0000
  O   O7534     1.0  0.65625  0.8749999999999998  0.0  1.0000
  O   O7535     1.0  0.65625  0.9374999999999998  0.0  1.0000
  O   O7536     1.0  0.65625  0.0  0.0  1.0000
  O   O7537     1.0  0.6875000000000002  0.09374999999999999  0.9687500000000001  1.0000
  O   O7538     1.0  0.6875000000000002  0.15625  0.9687500000000001  1.0000
  O   O7539     1.0  0.6875000000000002  0.21874999999999994  0.9687500000000001  1.0000
  O   O7540     1.0  0.6875000000000002  0.2812499999999999  0.9687500000000001  1.0000
  O   O7541     1.0  0.6875000000000002  0.34375  0.9687500000000001  1.0000
  O   O7542     1.0  0.6875000000000002  0.4062499999999999  0.9687500000000001  1.0000
  O   O7543     1.0  0.6875000000000002  0.4687499999999999  0.9687500000000001  1.0000
  O   O7544     1.0  0.6875000000000002  0.53125  0.9687500000000001  1.0000
  O   O7545     1.0  0.6875000000000002  0.59375  0.9687500000000001  1.0000
  O   O7546     1.0  0.6875000000000002  0.6562499999999998  0.9687500000000001  1.0000
  O   O7547     1.0  0.6875000000000002  0.7187499999999999  0.9687500000000001  1.0000
  O   O7548     1.0  0.6875000000000002  0.7812499999999999  0.9687500000000001  1.0000
  O   O7549     1.0  0.6875000000000002  0.8437499999999998  0.9687500000000001  1.0000
  O   O7550     1.0  0.6875000000000002  0.9062499999999998  0.9687500000000001  1.0000
  O   O7551     1.0  0.6875000000000002  0.9687499999999998  0.9687500000000001  1.0000
  O   O7552     1.0  0.6875000000000002  0.031249999999999993  0.9687500000000001  1.0000
  O   O7553     1.0  0.71875  0.062499999999999986  0.9375000000000001  1.0000
  O   O7554     1.0  0.71875  0.12499999999999997  0.9375000000000001  1.0000
  O   O7555     1.0  0.71875  0.18749999999999997  0.9375000000000001  1.0000
  O   O7556     1.0  0.71875  0.24999999999999994  0.9375000000000001  1.0000
  O   O7557     1.0  0.71875  0.3124999999999999  0.9375000000000001  1.0000
  O   O7558     1.0  0.71875  0.3749999999999999  0.9375000000000001  1.0000
  O   O7559     1.0  0.71875  0.4374999999999999  0.9375000000000001  1.0000
  O   O7560     1.0  0.71875  0.49999999999999983  0.9375000000000001  1.0000
  O   O7561     1.0  0.71875  0.5624999999999998  0.9375000000000001  1.0000
  O   O7562     1.0  0.71875  0.625  0.9375000000000001  1.0000
  O   O7563     1.0  0.71875  0.6875  0.9375000000000001  1.0000
  O   O7564     1.0  0.71875  0.7499999999999999  0.9375000000000001  1.0000
  O   O7565     1.0  0.71875  0.8124999999999998  0.9375000000000001  1.0000
  O   O7566     1.0  0.71875  0.8749999999999998  0.9375000000000001  1.0000
  O   O7567     1.0  0.71875  0.9374999999999998  0.9375000000000001  1.0000
  O   O7568     1.0  0.71875  0.0  0.9375000000000001  1.0000
  O   O7569     1.0  0.75  0.09374999999999999  0.9062499999999999  1.0000
  O   O7570     1.0  0.75  0.15625  0.9062499999999999  1.0000
  O   O7571     1.0  0.75  0.21874999999999994  0.9062499999999999  1.0000
  O   O7572     1.0  0.75  0.28125  0.9062499999999999  1.0000
  O   O7573     1.0  0.75  0.34375  0.9062499999999999  1.0000
  O   O7574     1.0  0.75  0.4062499999999999  0.9062499999999999  1.0000
  O   O7575     1.0  0.75  0.4687499999999999  0.9062499999999999  1.0000
  O   O7576     1.0  0.75  0.53125  0.9062499999999999  1.0000
  O   O7577     1.0  0.75  0.5937499999999998  0.9062499999999999  1.0000
  O   O7578     1.0  0.75  0.6562499999999998  0.9062499999999999  1.0000
  O   O7579     1.0  0.75  0.7187499999999999  0.9062499999999999  1.0000
  O   O7580     1.0  0.75  0.7812499999999999  0.9062499999999999  1.0000
  O   O7581     1.0  0.75  0.8437499999999998  0.9062499999999999  1.0000
  O   O7582     1.0  0.75  0.9062499999999998  0.9062499999999999  1.0000
  O   O7583     1.0  0.75  0.9687499999999998  0.9062499999999999  1.0000
  O   O7584     1.0  0.75  0.031249999999999993  0.9062499999999999  1.0000
  O   O7585     1.0  0.7812499999999999  0.062499999999999986  0.8749999999999999  1.0000
  O   O7586     1.0  0.7812499999999999  0.12499999999999997  0.8749999999999999  1.0000
  O   O7587     1.0  0.7812499999999999  0.18749999999999997  0.8749999999999999  1.0000
  O   O7588     1.0  0.7812499999999999  0.24999999999999994  0.8749999999999999  1.0000
  O   O7589     1.0  0.7812499999999999  0.3124999999999999  0.8749999999999999  1.0000
  O   O7590     1.0  0.7812499999999999  0.3749999999999999  0.8749999999999999  1.0000
  O   O7591     1.0  0.7812499999999999  0.4374999999999999  0.8749999999999999  1.0000
  O   O7592     1.0  0.7812499999999999  0.49999999999999983  0.8749999999999999  1.0000
  O   O7593     1.0  0.7812499999999999  0.5624999999999998  0.8749999999999999  1.0000
  O   O7594     1.0  0.7812499999999999  0.625  0.8749999999999999  1.0000
  O   O7595     1.0  0.7812499999999999  0.6875  0.8749999999999999  1.0000
  O   O7596     1.0  0.7812499999999999  0.7499999999999999  0.8749999999999999  1.0000
  O   O7597     1.0  0.7812499999999999  0.8125000000000001  0.8749999999999999  1.0000
  O   O7598     1.0  0.7812499999999999  0.8749999999999998  0.8749999999999999  1.0000
  O   O7599     1.0  0.7812499999999999  0.9374999999999998  0.8749999999999999  1.0000
  O   O7600     1.0  0.7812499999999999  0.0  0.8749999999999999  1.0000
  O   O7601     1.0  0.8124999999999999  0.09374999999999999  0.8437499999999999  1.0000
  O   O7602     1.0  0.8124999999999999  0.15625  0.8437499999999999  1.0000
  O   O7603     1.0  0.8124999999999999  0.21874999999999994  0.8437499999999999  1.0000
  O   O7604     1.0  0.8124999999999999  0.28125  0.8437499999999999  1.0000
  O   O7605     1.0  0.8124999999999999  0.34375  0.8437499999999999  1.0000
  O   O7606     1.0  0.8124999999999999  0.4062499999999999  0.8437499999999999  1.0000
  O   O7607     1.0  0.8124999999999999  0.4687499999999999  0.8437499999999999  1.0000
  O   O7608     1.0  0.8124999999999999  0.5312499999999999  0.8437499999999999  1.0000
  O   O7609     1.0  0.8124999999999999  0.5937499999999998  0.8437499999999999  1.0000
  O   O7610     1.0  0.8124999999999999  0.6562499999999998  0.8437499999999999  1.0000
  O   O7611     1.0  0.8124999999999999  0.7187499999999999  0.8437499999999999  1.0000
  O   O7612     1.0  0.8124999999999999  0.7812499999999999  0.8437499999999999  1.0000
  O   O7613     1.0  0.8124999999999999  0.8437499999999998  0.8437499999999999  1.0000
  O   O7614     1.0  0.8124999999999999  0.9062499999999998  0.8437499999999999  1.0000
  O   O7615     1.0  0.8124999999999999  0.9687499999999998  0.8437499999999999  1.0000
  O   O7616     1.0  0.8124999999999999  0.031249999999999993  0.8437499999999999  1.0000
  O   O7617     1.0  0.8437500000000001  0.062499999999999986  0.8124999999999999  1.0000
  O   O7618     1.0  0.8437500000000001  0.12499999999999997  0.8124999999999999  1.0000
  O   O7619     1.0  0.8437500000000001  0.18749999999999997  0.8124999999999999  1.0000
  O   O7620     1.0  0.8437500000000001  0.24999999999999994  0.8124999999999999  1.0000
  O   O7621     1.0  0.8437500000000001  0.3124999999999999  0.8124999999999999  1.0000
  O   O7622     1.0  0.8437500000000001  0.3749999999999999  0.8124999999999999  1.0000
  O   O7623     1.0  0.8437500000000001  0.4374999999999999  0.8124999999999999  1.0000
  O   O7624     1.0  0.8437500000000001  0.4999999999999999  0.8124999999999999  1.0000
  O   O7625     1.0  0.8437500000000001  0.5625  0.8124999999999999  1.0000
  O   O7626     1.0  0.8437500000000001  0.625  0.8124999999999999  1.0000
  O   O7627     1.0  0.8437500000000001  0.6874999999999998  0.8124999999999999  1.0000
  O   O7628     1.0  0.8437500000000001  0.7499999999999999  0.8124999999999999  1.0000
  O   O7629     1.0  0.8437500000000001  0.8125000000000001  0.8124999999999999  1.0000
  O   O7630     1.0  0.8437500000000001  0.8749999999999998  0.8124999999999999  1.0000
  O   O7631     1.0  0.8437500000000001  0.9374999999999998  0.8124999999999999  1.0000
  O   O7632     1.0  0.8437500000000001  0.9999999999999999  0.8124999999999999  1.0000
  O   O7633     1.0  0.8749999999999999  0.09374999999999999  0.78125  1.0000
  O   O7634     1.0  0.8749999999999999  0.15625  0.78125  1.0000
  O   O7635     1.0  0.8749999999999999  0.21874999999999994  0.78125  1.0000
  O   O7636     1.0  0.8749999999999999  0.28125  0.78125  1.0000
  O   O7637     1.0  0.8749999999999999  0.34375  0.78125  1.0000
  O   O7638     1.0  0.8749999999999999  0.4062499999999999  0.78125  1.0000
  O   O7639     1.0  0.8749999999999999  0.4687499999999999  0.78125  1.0000
  O   O7640     1.0  0.8749999999999999  0.5312499999999999  0.78125  1.0000
  O   O7641     1.0  0.8749999999999999  0.5937499999999998  0.78125  1.0000
  O   O7642     1.0  0.8749999999999999  0.6562499999999998  0.78125  1.0000
  O   O7643     1.0  0.8749999999999999  0.7187499999999999  0.78125  1.0000
  O   O7644     1.0  0.8749999999999999  0.7812499999999999  0.78125  1.0000
  O   O7645     1.0  0.8749999999999999  0.8437499999999998  0.78125  1.0000
  O   O7646     1.0  0.8749999999999999  0.9062499999999998  0.78125  1.0000
  O   O7647     1.0  0.8749999999999999  0.9687499999999998  0.78125  1.0000
  O   O7648     1.0  0.8749999999999999  0.031249999999999993  0.78125  1.0000
  O   O7649     1.0  0.9062500000000002  0.062499999999999986  0.7499999999999999  1.0000
  O   O7650     1.0  0.9062500000000002  0.12499999999999997  0.7499999999999999  1.0000
  O   O7651     1.0  0.9062500000000002  0.18749999999999997  0.7499999999999999  1.0000
  O   O7652     1.0  0.9062500000000002  0.24999999999999983  0.7499999999999999  1.0000
  O   O7653     1.0  0.9062500000000002  0.3124999999999999  0.7499999999999999  1.0000
  O   O7654     1.0  0.9062500000000002  0.37499999999999994  0.7499999999999999  1.0000
  O   O7655     1.0  0.9062500000000002  0.4374999999999999  0.7499999999999999  1.0000
  O   O7656     1.0  0.9062500000000002  0.4999999999999999  0.7499999999999999  1.0000
  O   O7657     1.0  0.9062500000000002  0.5625  0.7499999999999999  1.0000
  O   O7658     1.0  0.9062500000000002  0.625  0.7499999999999999  1.0000
  O   O7659     1.0  0.9062500000000002  0.6874999999999998  0.7499999999999999  1.0000
  O   O7660     1.0  0.9062500000000002  0.7499999999999999  0.7499999999999999  1.0000
  O   O7661     1.0  0.9062500000000002  0.8124999999999998  0.7499999999999999  1.0000
  O   O7662     1.0  0.9062500000000002  0.8749999999999998  0.7499999999999999  1.0000
  O   O7663     1.0  0.9062500000000002  0.9374999999999998  0.7499999999999999  1.0000
  O   O7664     1.0  0.9062500000000002  0.9999999999999999  0.7499999999999999  1.0000
  O   O7665     1.0  0.9374999999999999  0.09374999999999999  0.7187499999999999  1.0000
  O   O7666     1.0  0.9374999999999999  0.15625  0.7187499999999999  1.0000
  O   O7667     1.0  0.9374999999999999  0.21874999999999994  0.7187499999999999  1.0000
  O   O7668     1.0  0.9374999999999999  0.28125  0.7187499999999999  1.0000
  O   O7669     1.0  0.9374999999999999  0.3437499999999999  0.7187499999999999  1.0000
  O   O7670     1.0  0.9374999999999999  0.4062499999999999  0.7187499999999999  1.0000
  O   O7671     1.0  0.9374999999999999  0.4687499999999999  0.7187499999999999  1.0000
  O   O7672     1.0  0.9374999999999999  0.5312499999999999  0.7187499999999999  1.0000
  O   O7673     1.0  0.9374999999999999  0.5937499999999998  0.7187499999999999  1.0000
  O   O7674     1.0  0.9374999999999999  0.6562499999999998  0.7187499999999999  1.0000
  O   O7675     1.0  0.9374999999999999  0.7187499999999999  0.7187499999999999  1.0000
  O   O7676     1.0  0.9374999999999999  0.7812499999999999  0.7187499999999999  1.0000
  O   O7677     1.0  0.9374999999999999  0.8437499999999998  0.7187499999999999  1.0000
  O   O7678     1.0  0.9374999999999999  0.9062499999999998  0.7187499999999999  1.0000
  O   O7679     1.0  0.9374999999999999  0.9687499999999998  0.7187499999999999  1.0000
  O   O7680     1.0  0.9374999999999999  0.031249999999999993  0.7187499999999999  1.0000
  O   O7681     1.0  0.9687500000000001  0.062499999999999986  0.6875000000000001  1.0000
  O   O7682     1.0  0.9687500000000001  0.12499999999999997  0.6875000000000001  1.0000
  O   O7683     1.0  0.9687500000000001  0.18749999999999997  0.6875000000000001  1.0000
  O   O7684     1.0  0.9687500000000001  0.24999999999999983  0.6875000000000001  1.0000
  O   O7685     1.0  0.9687500000000001  0.3125  0.6875000000000001  1.0000
  O   O7686     1.0  0.9687500000000001  0.37499999999999994  0.6875000000000001  1.0000
  O   O7687     1.0  0.9687500000000001  0.4374999999999999  0.6875000000000001  1.0000
  O   O7688     1.0  0.9687500000000001  0.49999999999999983  0.6875000000000001  1.0000
  O   O7689     1.0  0.9687500000000001  0.5625  0.6875000000000001  1.0000
  O   O7690     1.0  0.9687500000000001  0.6249999999999998  0.6875000000000001  1.0000
  O   O7691     1.0  0.9687500000000001  0.6874999999999998  0.6875000000000001  1.0000
  O   O7692     1.0  0.9687500000000001  0.7499999999999999  0.6875000000000001  1.0000
  O   O7693     1.0  0.9687500000000001  0.8124999999999998  0.6875000000000001  1.0000
  O   O7694     1.0  0.9687500000000001  0.8749999999999998  0.6875000000000001  1.0000
  O   O7695     1.0  0.9687500000000001  0.9374999999999998  0.6875000000000001  1.0000
  O   O7696     1.0  0.9687500000000001  0.9999999999999999  0.6875000000000001  1.0000
  O   O7697     1.0  0.9999999999999999  0.09374999999999999  0.6562500000000001  1.0000
  O   O7698     1.0  0.9999999999999999  0.15625  0.6562500000000001  1.0000
  O   O7699     1.0  0.9999999999999999  0.21874999999999994  0.6562500000000001  1.0000
  O   O7700     1.0  0.9999999999999999  0.28125  0.6562500000000001  1.0000
  O   O7701     1.0  0.9999999999999999  0.3437499999999999  0.6562500000000001  1.0000
  O   O7702     1.0  0.9999999999999999  0.4062499999999999  0.6562500000000001  1.0000
  O   O7703     1.0  0.9999999999999999  0.4687499999999999  0.6562500000000001  1.0000
  O   O7704     1.0  0.9999999999999999  0.5312499999999999  0.6562500000000001  1.0000
  O   O7705     1.0  0.9999999999999999  0.59375  0.6562500000000001  1.0000
  O   O7706     1.0  0.9999999999999999  0.65625  0.6562500000000001  1.0000
  O   O7707     1.0  0.9999999999999999  0.7187499999999999  0.6562500000000001  1.0000
  O   O7708     1.0  0.9999999999999999  0.7812499999999999  0.6562500000000001  1.0000
  O   O7709     1.0  0.9999999999999999  0.8437499999999998  0.6562500000000001  1.0000
  O   O7710     1.0  0.9999999999999999  0.9062499999999998  0.6562500000000001  1.0000
  O   O7711     1.0  0.9999999999999999  0.9687499999999998  0.6562500000000001  1.0000
  O   O7712     1.0  0.9999999999999999  0.031249999999999993  0.6562500000000001  1.0000
  O   O7713     1.0  0.71875  0.062499999999999986  0.0  1.0000
  O   O7714     1.0  0.71875  0.12499999999999997  0.0  1.0000
  O   O7715     1.0  0.71875  0.18749999999999997  0.0  1.0000
  O   O7716     1.0  0.71875  0.24999999999999994  0.0  1.0000
  O   O7717     1.0  0.71875  0.3124999999999999  0.0  1.0000
  O   O7718     1.0  0.71875  0.3749999999999999  0.0  1.0000
  O   O7719     1.0  0.71875  0.4374999999999999  0.0  1.0000
  O   O7720     1.0  0.71875  0.49999999999999983  0.0  1.0000
  O   O7721     1.0  0.71875  0.5624999999999998  0.0  1.0000
  O   O7722     1.0  0.71875  0.625  0.0  1.0000
  O   O7723     1.0  0.71875  0.6875  0.0  1.0000
  O   O7724     1.0  0.71875  0.7499999999999999  0.0  1.0000
  O   O7725     1.0  0.71875  0.8124999999999998  0.0  1.0000
  O   O7726     1.0  0.71875  0.8749999999999998  0.0  1.0000
  O   O7727     1.0  0.71875  0.9374999999999998  0.0  1.0000
  O   O7728     1.0  0.71875  0.0  0.0  1.0000
  O   O7729     1.0  0.75  0.09374999999999999  0.9687500000000001  1.0000
  O   O7730     1.0  0.75  0.15625  0.9687500000000001  1.0000
  O   O7731     1.0  0.75  0.21874999999999994  0.9687500000000001  1.0000
  O   O7732     1.0  0.75  0.28125  0.9687500000000001  1.0000
  O   O7733     1.0  0.75  0.34375  0.9687500000000001  1.0000
  O   O7734     1.0  0.75  0.4062499999999999  0.9687500000000001  1.0000
  O   O7735     1.0  0.75  0.4687499999999999  0.9687500000000001  1.0000
  O   O7736     1.0  0.75  0.53125  0.9687500000000001  1.0000
  O   O7737     1.0  0.75  0.5937499999999998  0.9687500000000001  1.0000
  O   O7738     1.0  0.75  0.6562499999999998  0.9687500000000001  1.0000
  O   O7739     1.0  0.75  0.7187499999999999  0.9687500000000001  1.0000
  O   O7740     1.0  0.75  0.7812499999999999  0.9687500000000001  1.0000
  O   O7741     1.0  0.75  0.8437499999999998  0.9687500000000001  1.0000
  O   O7742     1.0  0.75  0.9062499999999998  0.9687500000000001  1.0000
  O   O7743     1.0  0.75  0.9687499999999998  0.9687500000000001  1.0000
  O   O7744     1.0  0.75  0.031249999999999993  0.9687500000000001  1.0000
  O   O7745     1.0  0.7812499999999999  0.062499999999999986  0.9375000000000001  1.0000
  O   O7746     1.0  0.7812499999999999  0.12499999999999997  0.9375000000000001  1.0000
  O   O7747     1.0  0.7812499999999999  0.18749999999999997  0.9375000000000001  1.0000
  O   O7748     1.0  0.7812499999999999  0.24999999999999994  0.9375000000000001  1.0000
  O   O7749     1.0  0.7812499999999999  0.3124999999999999  0.9375000000000001  1.0000
  O   O7750     1.0  0.7812499999999999  0.3749999999999999  0.9375000000000001  1.0000
  O   O7751     1.0  0.7812499999999999  0.4374999999999999  0.9375000000000001  1.0000
  O   O7752     1.0  0.7812499999999999  0.49999999999999983  0.9375000000000001  1.0000
  O   O7753     1.0  0.7812499999999999  0.5624999999999998  0.9375000000000001  1.0000
  O   O7754     1.0  0.7812499999999999  0.625  0.9375000000000001  1.0000
  O   O7755     1.0  0.7812499999999999  0.6875  0.9375000000000001  1.0000
  O   O7756     1.0  0.7812499999999999  0.7499999999999999  0.9375000000000001  1.0000
  O   O7757     1.0  0.7812499999999999  0.8125000000000001  0.9375000000000001  1.0000
  O   O7758     1.0  0.7812499999999999  0.8749999999999998  0.9375000000000001  1.0000
  O   O7759     1.0  0.7812499999999999  0.9374999999999998  0.9375000000000001  1.0000
  O   O7760     1.0  0.7812499999999999  0.0  0.9375000000000001  1.0000
  O   O7761     1.0  0.8124999999999999  0.09374999999999999  0.9062500000000001  1.0000
  O   O7762     1.0  0.8124999999999999  0.15625  0.9062500000000001  1.0000
  O   O7763     1.0  0.8124999999999999  0.21874999999999994  0.9062500000000001  1.0000
  O   O7764     1.0  0.8124999999999999  0.28125  0.9062500000000001  1.0000
  O   O7765     1.0  0.8124999999999999  0.34375  0.9062500000000001  1.0000
  O   O7766     1.0  0.8124999999999999  0.4062499999999999  0.9062500000000001  1.0000
  O   O7767     1.0  0.8124999999999999  0.4687499999999999  0.9062500000000001  1.0000
  O   O7768     1.0  0.8124999999999999  0.5312499999999999  0.9062500000000001  1.0000
  O   O7769     1.0  0.8124999999999999  0.5937499999999998  0.9062500000000001  1.0000
  O   O7770     1.0  0.8124999999999999  0.6562499999999998  0.9062500000000001  1.0000
  O   O7771     1.0  0.8124999999999999  0.7187499999999999  0.9062500000000001  1.0000
  O   O7772     1.0  0.8124999999999999  0.7812499999999999  0.9062500000000001  1.0000
  O   O7773     1.0  0.8124999999999999  0.8437499999999998  0.9062500000000001  1.0000
  O   O7774     1.0  0.8124999999999999  0.9062499999999998  0.9062500000000001  1.0000
  O   O7775     1.0  0.8124999999999999  0.9687499999999998  0.9062500000000001  1.0000
  O   O7776     1.0  0.8124999999999999  0.031249999999999993  0.9062500000000001  1.0000
  O   O7777     1.0  0.8437500000000002  0.062499999999999986  0.8749999999999999  1.0000
  O   O7778     1.0  0.8437500000000002  0.12499999999999997  0.8749999999999999  1.0000
  O   O7779     1.0  0.8437500000000002  0.18749999999999997  0.8749999999999999  1.0000
  O   O7780     1.0  0.8437500000000002  0.24999999999999994  0.8749999999999999  1.0000
  O   O7781     1.0  0.8437500000000002  0.3124999999999999  0.8749999999999999  1.0000
  O   O7782     1.0  0.8437500000000002  0.3749999999999999  0.8749999999999999  1.0000
  O   O7783     1.0  0.8437500000000002  0.4374999999999999  0.8749999999999999  1.0000
  O   O7784     1.0  0.8437500000000002  0.4999999999999999  0.8749999999999999  1.0000
  O   O7785     1.0  0.8437500000000002  0.5625  0.8749999999999999  1.0000
  O   O7786     1.0  0.8437500000000002  0.625  0.8749999999999999  1.0000
  O   O7787     1.0  0.8437500000000002  0.6874999999999998  0.8749999999999999  1.0000
  O   O7788     1.0  0.8437500000000002  0.7499999999999999  0.8749999999999999  1.0000
  O   O7789     1.0  0.8437500000000002  0.8125000000000001  0.8749999999999999  1.0000
  O   O7790     1.0  0.8437500000000002  0.8749999999999998  0.8749999999999999  1.0000
  O   O7791     1.0  0.8437500000000002  0.9374999999999998  0.8749999999999999  1.0000
  O   O7792     1.0  0.8437500000000002  0.9999999999999999  0.8749999999999999  1.0000
  O   O7793     1.0  0.8749999999999999  0.09374999999999999  0.8437499999999999  1.0000
  O   O7794     1.0  0.8749999999999999  0.15625  0.8437499999999999  1.0000
  O   O7795     1.0  0.8749999999999999  0.21874999999999994  0.8437499999999999  1.0000
  O   O7796     1.0  0.8749999999999999  0.28125  0.8437499999999999  1.0000
  O   O7797     1.0  0.8749999999999999  0.34375  0.8437499999999999  1.0000
  O   O7798     1.0  0.8749999999999999  0.4062499999999999  0.8437499999999999  1.0000
  O   O7799     1.0  0.8749999999999999  0.4687499999999999  0.8437499999999999  1.0000
  O   O7800     1.0  0.8749999999999999  0.5312499999999999  0.8437499999999999  1.0000
  O   O7801     1.0  0.8749999999999999  0.5937499999999998  0.8437499999999999  1.0000
  O   O7802     1.0  0.8749999999999999  0.6562499999999998  0.8437499999999999  1.0000
  O   O7803     1.0  0.8749999999999999  0.7187499999999999  0.8437499999999999  1.0000
  O   O7804     1.0  0.8749999999999999  0.7812499999999999  0.8437499999999999  1.0000
  O   O7805     1.0  0.8749999999999999  0.8437499999999998  0.8437499999999999  1.0000
  O   O7806     1.0  0.8749999999999999  0.9062499999999998  0.8437499999999999  1.0000
  O   O7807     1.0  0.8749999999999999  0.9687499999999998  0.8437499999999999  1.0000
  O   O7808     1.0  0.8749999999999999  0.031249999999999993  0.8437499999999999  1.0000
  O   O7809     1.0  0.9062500000000001  0.062499999999999986  0.8124999999999999  1.0000
  O   O7810     1.0  0.9062500000000001  0.12499999999999997  0.8124999999999999  1.0000
  O   O7811     1.0  0.9062500000000001  0.18749999999999997  0.8124999999999999  1.0000
  O   O7812     1.0  0.9062500000000001  0.24999999999999983  0.8124999999999999  1.0000
  O   O7813     1.0  0.9062500000000001  0.3124999999999999  0.8124999999999999  1.0000
  O   O7814     1.0  0.9062500000000001  0.37499999999999994  0.8124999999999999  1.0000
  O   O7815     1.0  0.9062500000000001  0.4374999999999999  0.8124999999999999  1.0000
  O   O7816     1.0  0.9062500000000001  0.4999999999999999  0.8124999999999999  1.0000
  O   O7817     1.0  0.9062500000000001  0.5625  0.8124999999999999  1.0000
  O   O7818     1.0  0.9062500000000001  0.625  0.8124999999999999  1.0000
  O   O7819     1.0  0.9062500000000001  0.6874999999999998  0.8124999999999999  1.0000
  O   O7820     1.0  0.9062500000000001  0.7499999999999999  0.8124999999999999  1.0000
  O   O7821     1.0  0.9062500000000001  0.8124999999999998  0.8124999999999999  1.0000
  O   O7822     1.0  0.9062500000000001  0.8749999999999998  0.8124999999999999  1.0000
  O   O7823     1.0  0.9062500000000001  0.9374999999999998  0.8124999999999999  1.0000
  O   O7824     1.0  0.9062500000000001  0.9999999999999999  0.8124999999999999  1.0000
  O   O7825     1.0  0.9375  0.09374999999999999  0.7812499999999999  1.0000
  O   O7826     1.0  0.9375  0.15625  0.7812499999999999  1.0000
  O   O7827     1.0  0.9375  0.21874999999999994  0.7812499999999999  1.0000
  O   O7828     1.0  0.9375  0.28125  0.7812499999999999  1.0000
  O   O7829     1.0  0.9375  0.3437499999999999  0.7812499999999999  1.0000
  O   O7830     1.0  0.9375  0.4062499999999999  0.7812499999999999  1.0000
  O   O7831     1.0  0.9375  0.4687499999999999  0.7812499999999999  1.0000
  O   O7832     1.0  0.9375  0.5312499999999999  0.7812499999999999  1.0000
  O   O7833     1.0  0.9375  0.5937499999999998  0.7812499999999999  1.0000
  O   O7834     1.0  0.9375  0.6562499999999998  0.7812499999999999  1.0000
  O   O7835     1.0  0.9375  0.7187499999999999  0.7812499999999999  1.0000
  O   O7836     1.0  0.9375  0.7812499999999999  0.7812499999999999  1.0000
  O   O7837     1.0  0.9375  0.8437499999999998  0.7812499999999999  1.0000
  O   O7838     1.0  0.9375  0.9062499999999998  0.7812499999999999  1.0000
  O   O7839     1.0  0.9375  0.9687499999999998  0.7812499999999999  1.0000
  O   O7840     1.0  0.9375  0.031249999999999993  0.7812499999999999  1.0000
  O   O7841     1.0  0.9687500000000001  0.062499999999999986  0.7499999999999999  1.0000
  O   O7842     1.0  0.9687500000000001  0.12499999999999997  0.7499999999999999  1.0000
  O   O7843     1.0  0.9687500000000001  0.18749999999999997  0.7499999999999999  1.0000
  O   O7844     1.0  0.9687500000000001  0.24999999999999983  0.7499999999999999  1.0000
  O   O7845     1.0  0.9687500000000001  0.3125  0.7499999999999999  1.0000
  O   O7846     1.0  0.9687500000000001  0.37499999999999994  0.7499999999999999  1.0000
  O   O7847     1.0  0.9687500000000001  0.4374999999999999  0.7499999999999999  1.0000
  O   O7848     1.0  0.9687500000000001  0.49999999999999983  0.7499999999999999  1.0000
  O   O7849     1.0  0.9687500000000001  0.5625  0.7499999999999999  1.0000
  O   O7850     1.0  0.9687500000000001  0.6249999999999998  0.7499999999999999  1.0000
  O   O7851     1.0  0.9687500000000001  0.6874999999999998  0.7499999999999999  1.0000
  O   O7852     1.0  0.9687500000000001  0.7499999999999999  0.7499999999999999  1.0000
  O   O7853     1.0  0.9687500000000001  0.8124999999999998  0.7499999999999999  1.0000
  O   O7854     1.0  0.9687500000000001  0.8749999999999998  0.7499999999999999  1.0000
  O   O7855     1.0  0.9687500000000001  0.9374999999999998  0.7499999999999999  1.0000
  O   O7856     1.0  0.9687500000000001  0.9999999999999999  0.7499999999999999  1.0000
  O   O7857     1.0  0.9999999999999999  0.09374999999999999  0.71875  1.0000
  O   O7858     1.0  0.9999999999999999  0.15625  0.71875  1.0000
  O   O7859     1.0  0.9999999999999999  0.21874999999999994  0.71875  1.0000
  O   O7860     1.0  0.9999999999999999  0.28125  0.71875  1.0000
  O   O7861     1.0  0.9999999999999999  0.3437499999999999  0.71875  1.0000
  O   O7862     1.0  0.9999999999999999  0.4062499999999999  0.71875  1.0000
  O   O7863     1.0  0.9999999999999999  0.4687499999999999  0.71875  1.0000
  O   O7864     1.0  0.9999999999999999  0.5312499999999999  0.71875  1.0000
  O   O7865     1.0  0.9999999999999999  0.59375  0.71875  1.0000
  O   O7866     1.0  0.9999999999999999  0.65625  0.71875  1.0000
  O   O7867     1.0  0.9999999999999999  0.7187499999999999  0.71875  1.0000
  O   O7868     1.0  0.9999999999999999  0.7812499999999999  0.71875  1.0000
  O   O7869     1.0  0.9999999999999999  0.8437499999999998  0.71875  1.0000
  O   O7870     1.0  0.9999999999999999  0.9062499999999998  0.71875  1.0000
  O   O7871     1.0  0.9999999999999999  0.9687499999999998  0.71875  1.0000
  O   O7872     1.0  0.9999999999999999  0.031249999999999993  0.71875  1.0000
  O   O7873     1.0  0.78125  0.062499999999999986  0.0  1.0000
  O   O7874     1.0  0.78125  0.12499999999999997  0.0  1.0000
  O   O7875     1.0  0.78125  0.18749999999999997  0.0  1.0000
  O   O7876     1.0  0.78125  0.24999999999999994  0.0  1.0000
  O   O7877     1.0  0.78125  0.3124999999999999  0.0  1.0000
  O   O7878     1.0  0.78125  0.3749999999999999  0.0  1.0000
  O   O7879     1.0  0.78125  0.4374999999999999  0.0  1.0000
  O   O7880     1.0  0.78125  0.49999999999999983  0.0  1.0000
  O   O7881     1.0  0.78125  0.5624999999999998  0.0  1.0000
  O   O7882     1.0  0.78125  0.625  0.0  1.0000
  O   O7883     1.0  0.78125  0.6875  0.0  1.0000
  O   O7884     1.0  0.78125  0.7499999999999999  0.0  1.0000
  O   O7885     1.0  0.78125  0.8125000000000001  0.0  1.0000
  O   O7886     1.0  0.78125  0.8749999999999998  0.0  1.0000
  O   O7887     1.0  0.78125  0.9374999999999998  0.0  1.0000
  O   O7888     1.0  0.78125  0.0  0.0  1.0000
  O   O7889     1.0  0.8124999999999999  0.09374999999999999  0.9687500000000001  1.0000
  O   O7890     1.0  0.8124999999999999  0.15625  0.9687500000000001  1.0000
  O   O7891     1.0  0.8124999999999999  0.21874999999999994  0.9687500000000001  1.0000
  O   O7892     1.0  0.8124999999999999  0.28125  0.9687500000000001  1.0000
  O   O7893     1.0  0.8124999999999999  0.34375  0.9687500000000001  1.0000
  O   O7894     1.0  0.8124999999999999  0.4062499999999999  0.9687500000000001  1.0000
  O   O7895     1.0  0.8124999999999999  0.4687499999999999  0.9687500000000001  1.0000
  O   O7896     1.0  0.8124999999999999  0.5312499999999999  0.9687500000000001  1.0000
  O   O7897     1.0  0.8124999999999999  0.5937499999999998  0.9687500000000001  1.0000
  O   O7898     1.0  0.8124999999999999  0.6562499999999998  0.9687500000000001  1.0000
  O   O7899     1.0  0.8124999999999999  0.7187499999999999  0.9687500000000001  1.0000
  O   O7900     1.0  0.8124999999999999  0.7812499999999999  0.9687500000000001  1.0000
  O   O7901     1.0  0.8124999999999999  0.8437499999999998  0.9687500000000001  1.0000
  O   O7902     1.0  0.8124999999999999  0.9062499999999998  0.9687500000000001  1.0000
  O   O7903     1.0  0.8124999999999999  0.9687499999999998  0.9687500000000001  1.0000
  O   O7904     1.0  0.8124999999999999  0.031249999999999993  0.9687500000000001  1.0000
  O   O7905     1.0  0.8437500000000001  0.062499999999999986  0.9375000000000001  1.0000
  O   O7906     1.0  0.8437500000000001  0.12499999999999997  0.9375000000000001  1.0000
  O   O7907     1.0  0.8437500000000001  0.18749999999999997  0.9375000000000001  1.0000
  O   O7908     1.0  0.8437500000000001  0.24999999999999994  0.9375000000000001  1.0000
  O   O7909     1.0  0.8437500000000001  0.3124999999999999  0.9375000000000001  1.0000
  O   O7910     1.0  0.8437500000000001  0.3749999999999999  0.9375000000000001  1.0000
  O   O7911     1.0  0.8437500000000001  0.4374999999999999  0.9375000000000001  1.0000
  O   O7912     1.0  0.8437500000000001  0.4999999999999999  0.9375000000000001  1.0000
  O   O7913     1.0  0.8437500000000001  0.5625  0.9375000000000001  1.0000
  O   O7914     1.0  0.8437500000000001  0.625  0.9375000000000001  1.0000
  O   O7915     1.0  0.8437500000000001  0.6874999999999998  0.9375000000000001  1.0000
  O   O7916     1.0  0.8437500000000001  0.7499999999999999  0.9375000000000001  1.0000
  O   O7917     1.0  0.8437500000000001  0.8125000000000001  0.9375000000000001  1.0000
  O   O7918     1.0  0.8437500000000001  0.8749999999999998  0.9375000000000001  1.0000
  O   O7919     1.0  0.8437500000000001  0.9374999999999998  0.9375000000000001  1.0000
  O   O7920     1.0  0.8437500000000001  0.9999999999999999  0.9375000000000001  1.0000
  O   O7921     1.0  0.8749999999999999  0.09374999999999999  0.9062500000000001  1.0000
  O   O7922     1.0  0.8749999999999999  0.15625  0.9062500000000001  1.0000
  O   O7923     1.0  0.8749999999999999  0.21874999999999994  0.9062500000000001  1.0000
  O   O7924     1.0  0.8749999999999999  0.28125  0.9062500000000001  1.0000
  O   O7925     1.0  0.8749999999999999  0.34375  0.9062500000000001  1.0000
  O   O7926     1.0  0.8749999999999999  0.4062499999999999  0.9062500000000001  1.0000
  O   O7927     1.0  0.8749999999999999  0.4687499999999999  0.9062500000000001  1.0000
  O   O7928     1.0  0.8749999999999999  0.5312499999999999  0.9062500000000001  1.0000
  O   O7929     1.0  0.8749999999999999  0.5937499999999998  0.9062500000000001  1.0000
  O   O7930     1.0  0.8749999999999999  0.6562499999999998  0.9062500000000001  1.0000
  O   O7931     1.0  0.8749999999999999  0.7187499999999999  0.9062500000000001  1.0000
  O   O7932     1.0  0.8749999999999999  0.7812499999999999  0.9062500000000001  1.0000
  O   O7933     1.0  0.8749999999999999  0.8437499999999998  0.9062500000000001  1.0000
  O   O7934     1.0  0.8749999999999999  0.9062499999999998  0.9062500000000001  1.0000
  O   O7935     1.0  0.8749999999999999  0.9687499999999998  0.9062500000000001  1.0000
  O   O7936     1.0  0.8749999999999999  0.031249999999999993  0.9062500000000001  1.0000
  O   O7937     1.0  0.9062500000000001  0.062499999999999986  0.8749999999999999  1.0000
  O   O7938     1.0  0.9062500000000001  0.12499999999999997  0.8749999999999999  1.0000
  O   O7939     1.0  0.9062500000000001  0.18749999999999997  0.8749999999999999  1.0000
  O   O7940     1.0  0.9062500000000001  0.24999999999999983  0.8749999999999999  1.0000
  O   O7941     1.0  0.9062500000000001  0.3124999999999999  0.8749999999999999  1.0000
  O   O7942     1.0  0.9062500000000001  0.37499999999999994  0.8749999999999999  1.0000
  O   O7943     1.0  0.9062500000000001  0.4374999999999999  0.8749999999999999  1.0000
  O   O7944     1.0  0.9062500000000001  0.4999999999999999  0.8749999999999999  1.0000
  O   O7945     1.0  0.9062500000000001  0.5625  0.8749999999999999  1.0000
  O   O7946     1.0  0.9062500000000001  0.625  0.8749999999999999  1.0000
  O   O7947     1.0  0.9062500000000001  0.6874999999999998  0.8749999999999999  1.0000
  O   O7948     1.0  0.9062500000000001  0.7499999999999999  0.8749999999999999  1.0000
  O   O7949     1.0  0.9062500000000001  0.8124999999999998  0.8749999999999999  1.0000
  O   O7950     1.0  0.9062500000000001  0.8749999999999998  0.8749999999999999  1.0000
  O   O7951     1.0  0.9062500000000001  0.9374999999999998  0.8749999999999999  1.0000
  O   O7952     1.0  0.9062500000000001  0.9999999999999999  0.8749999999999999  1.0000
  O   O7953     1.0  0.9374999999999999  0.09374999999999999  0.8437499999999999  1.0000
  O   O7954     1.0  0.9374999999999999  0.15625  0.8437499999999999  1.0000
  O   O7955     1.0  0.9374999999999999  0.21874999999999994  0.8437499999999999  1.0000
  O   O7956     1.0  0.9374999999999999  0.28125  0.8437499999999999  1.0000
  O   O7957     1.0  0.9374999999999999  0.3437499999999999  0.8437499999999999  1.0000
  O   O7958     1.0  0.9374999999999999  0.4062499999999999  0.8437499999999999  1.0000
  O   O7959     1.0  0.9374999999999999  0.4687499999999999  0.8437499999999999  1.0000
  O   O7960     1.0  0.9374999999999999  0.5312499999999999  0.8437499999999999  1.0000
  O   O7961     1.0  0.9374999999999999  0.5937499999999998  0.8437499999999999  1.0000
  O   O7962     1.0  0.9374999999999999  0.6562499999999998  0.8437499999999999  1.0000
  O   O7963     1.0  0.9374999999999999  0.7187499999999999  0.8437499999999999  1.0000
  O   O7964     1.0  0.9374999999999999  0.7812499999999999  0.8437499999999999  1.0000
  O   O7965     1.0  0.9374999999999999  0.8437499999999998  0.8437499999999999  1.0000
  O   O7966     1.0  0.9374999999999999  0.9062499999999998  0.8437499999999999  1.0000
  O   O7967     1.0  0.9374999999999999  0.9687499999999998  0.8437499999999999  1.0000
  O   O7968     1.0  0.9374999999999999  0.031249999999999993  0.8437499999999999  1.0000
  O   O7969     1.0  0.9687500000000002  0.062499999999999986  0.8124999999999999  1.0000
  O   O7970     1.0  0.9687500000000002  0.12499999999999997  0.8124999999999999  1.0000
  O   O7971     1.0  0.9687500000000002  0.18749999999999997  0.8124999999999999  1.0000
  O   O7972     1.0  0.9687500000000002  0.24999999999999983  0.8124999999999999  1.0000
  O   O7973     1.0  0.9687500000000002  0.3125  0.8124999999999999  1.0000
  O   O7974     1.0  0.9687500000000002  0.37499999999999994  0.8124999999999999  1.0000
  O   O7975     1.0  0.9687500000000002  0.4374999999999999  0.8124999999999999  1.0000
  O   O7976     1.0  0.9687500000000002  0.49999999999999983  0.8124999999999999  1.0000
  O   O7977     1.0  0.9687500000000002  0.5625  0.8124999999999999  1.0000
  O   O7978     1.0  0.9687500000000002  0.6249999999999998  0.8124999999999999  1.0000
  O   O7979     1.0  0.9687500000000002  0.6874999999999998  0.8124999999999999  1.0000
  O   O7980     1.0  0.9687500000000002  0.7499999999999999  0.8124999999999999  1.0000
  O   O7981     1.0  0.9687500000000002  0.8124999999999998  0.8124999999999999  1.0000
  O   O7982     1.0  0.9687500000000002  0.8749999999999998  0.8124999999999999  1.0000
  O   O7983     1.0  0.9687500000000002  0.9374999999999998  0.8124999999999999  1.0000
  O   O7984     1.0  0.9687500000000002  0.9999999999999999  0.8124999999999999  1.0000
  O   O7985     1.0  0.9999999999999999  0.09374999999999999  0.7812499999999999  1.0000
  O   O7986     1.0  0.9999999999999999  0.15625  0.7812499999999999  1.0000
  O   O7987     1.0  0.9999999999999999  0.21874999999999994  0.7812499999999999  1.0000
  O   O7988     1.0  0.9999999999999999  0.28125  0.7812499999999999  1.0000
  O   O7989     1.0  0.9999999999999999  0.3437499999999999  0.7812499999999999  1.0000
  O   O7990     1.0  0.9999999999999999  0.4062499999999999  0.7812499999999999  1.0000
  O   O7991     1.0  0.9999999999999999  0.4687499999999999  0.7812499999999999  1.0000
  O   O7992     1.0  0.9999999999999999  0.5312499999999999  0.7812499999999999  1.0000
  O   O7993     1.0  0.9999999999999999  0.59375  0.7812499999999999  1.0000
  O   O7994     1.0  0.9999999999999999  0.65625  0.7812499999999999  1.0000
  O   O7995     1.0  0.9999999999999999  0.7187499999999999  0.7812499999999999  1.0000
  O   O7996     1.0  0.9999999999999999  0.7812499999999999  0.7812499999999999  1.0000
  O   O7997     1.0  0.9999999999999999  0.8437499999999998  0.7812499999999999  1.0000
  O   O7998     1.0  0.9999999999999999  0.9062499999999998  0.7812499999999999  1.0000
  O   O7999     1.0  0.9999999999999999  0.9687499999999998  0.7812499999999999  1.0000
  O   O8000     1.0  0.9999999999999999  0.031249999999999993  0.7812499999999999  1.0000
  O   O8001     1.0  0.8437500000000001  0.062499999999999986  0.0  1.0000
  O   O8002     1.0  0.8437500000000001  0.12499999999999997  0.0  1.0000
  O   O8003     1.0  0.8437500000000001  0.18749999999999997  0.0  1.0000
  O   O8004     1.0  0.8437500000000001  0.24999999999999994  0.0  1.0000
  O   O8005     1.0  0.8437500000000001  0.3124999999999999  0.0  1.0000
  O   O8006     1.0  0.8437500000000001  0.3749999999999999  0.0  1.0000
  O   O8007     1.0  0.8437500000000001  0.4374999999999999  0.0  1.0000
  O   O8008     1.0  0.8437500000000001  0.4999999999999999  0.0  1.0000
  O   O8009     1.0  0.8437500000000001  0.5625  0.0  1.0000
  O   O8010     1.0  0.8437500000000001  0.625  0.0  1.0000
  O   O8011     1.0  0.8437500000000001  0.6874999999999998  0.0  1.0000
  O   O8012     1.0  0.8437500000000001  0.7499999999999999  0.0  1.0000
  O   O8013     1.0  0.8437500000000001  0.8125000000000001  0.0  1.0000
  O   O8014     1.0  0.8437500000000001  0.8749999999999998  0.0  1.0000
  O   O8015     1.0  0.8437500000000001  0.9374999999999998  0.0  1.0000
  O   O8016     1.0  0.8437500000000001  0.9999999999999999  0.0  1.0000
  O   O8017     1.0  0.8749999999999999  0.09374999999999999  0.9687500000000001  1.0000
  O   O8018     1.0  0.8749999999999999  0.15625  0.9687500000000001  1.0000
  O   O8019     1.0  0.8749999999999999  0.21874999999999994  0.9687500000000001  1.0000
  O   O8020     1.0  0.8749999999999999  0.28125  0.9687500000000001  1.0000
  O   O8021     1.0  0.8749999999999999  0.34375  0.9687500000000001  1.0000
  O   O8022     1.0  0.8749999999999999  0.4062499999999999  0.9687500000000001  1.0000
  O   O8023     1.0  0.8749999999999999  0.4687499999999999  0.9687500000000001  1.0000
  O   O8024     1.0  0.8749999999999999  0.5312499999999999  0.9687500000000001  1.0000
  O   O8025     1.0  0.8749999999999999  0.5937499999999998  0.9687500000000001  1.0000
  O   O8026     1.0  0.8749999999999999  0.6562499999999998  0.9687500000000001  1.0000
  O   O8027     1.0  0.8749999999999999  0.7187499999999999  0.9687500000000001  1.0000
  O   O8028     1.0  0.8749999999999999  0.7812499999999999  0.9687500000000001  1.0000
  O   O8029     1.0  0.8749999999999999  0.8437499999999998  0.9687500000000001  1.0000
  O   O8030     1.0  0.8749999999999999  0.9062499999999998  0.9687500000000001  1.0000
  O   O8031     1.0  0.8749999999999999  0.9687499999999998  0.9687500000000001  1.0000
  O   O8032     1.0  0.8749999999999999  0.031249999999999993  0.9687500000000001  1.0000
  O   O8033     1.0  0.9062500000000002  0.062499999999999986  0.9374999999999999  1.0000
  O   O8034     1.0  0.9062500000000002  0.12499999999999997  0.9374999999999999  1.0000
  O   O8035     1.0  0.9062500000000002  0.18749999999999997  0.9374999999999999  1.0000
  O   O8036     1.0  0.9062500000000002  0.24999999999999983  0.9374999999999999  1.0000
  O   O8037     1.0  0.9062500000000002  0.3124999999999999  0.9374999999999999  1.0000
  O   O8038     1.0  0.9062500000000002  0.37499999999999994  0.9374999999999999  1.0000
  O   O8039     1.0  0.9062500000000002  0.4374999999999999  0.9374999999999999  1.0000
  O   O8040     1.0  0.9062500000000002  0.4999999999999999  0.9374999999999999  1.0000
  O   O8041     1.0  0.9062500000000002  0.5625  0.9374999999999999  1.0000
  O   O8042     1.0  0.9062500000000002  0.625  0.9374999999999999  1.0000
  O   O8043     1.0  0.9062500000000002  0.6874999999999998  0.9374999999999999  1.0000
  O   O8044     1.0  0.9062500000000002  0.7499999999999999  0.9374999999999999  1.0000
  O   O8045     1.0  0.9062500000000002  0.8124999999999998  0.9374999999999999  1.0000
  O   O8046     1.0  0.9062500000000002  0.8749999999999998  0.9374999999999999  1.0000
  O   O8047     1.0  0.9062500000000002  0.9374999999999998  0.9374999999999999  1.0000
  O   O8048     1.0  0.9062500000000002  0.9999999999999999  0.9374999999999999  1.0000
  O   O8049     1.0  0.9374999999999999  0.09374999999999999  0.9062499999999999  1.0000
  O   O8050     1.0  0.9374999999999999  0.15625  0.9062499999999999  1.0000
  O   O8051     1.0  0.9374999999999999  0.21874999999999994  0.9062499999999999  1.0000
  O   O8052     1.0  0.9374999999999999  0.28125  0.9062499999999999  1.0000
  O   O8053     1.0  0.9374999999999999  0.3437499999999999  0.9062499999999999  1.0000
  O   O8054     1.0  0.9374999999999999  0.4062499999999999  0.9062499999999999  1.0000
  O   O8055     1.0  0.9374999999999999  0.4687499999999999  0.9062499999999999  1.0000
  O   O8056     1.0  0.9374999999999999  0.5312499999999999  0.9062499999999999  1.0000
  O   O8057     1.0  0.9374999999999999  0.5937499999999998  0.9062499999999999  1.0000
  O   O8058     1.0  0.9374999999999999  0.6562499999999998  0.9062499999999999  1.0000
  O   O8059     1.0  0.9374999999999999  0.7187499999999999  0.9062499999999999  1.0000
  O   O8060     1.0  0.9374999999999999  0.7812499999999999  0.9062499999999999  1.0000
  O   O8061     1.0  0.9374999999999999  0.8437499999999998  0.9062499999999999  1.0000
  O   O8062     1.0  0.9374999999999999  0.9062499999999998  0.9062499999999999  1.0000
  O   O8063     1.0  0.9374999999999999  0.9687499999999998  0.9062499999999999  1.0000
  O   O8064     1.0  0.9374999999999999  0.031249999999999993  0.9062499999999999  1.0000
  O   O8065     1.0  0.9687500000000001  0.062499999999999986  0.875  1.0000
  O   O8066     1.0  0.9687500000000001  0.12499999999999997  0.875  1.0000
  O   O8067     1.0  0.9687500000000001  0.18749999999999997  0.875  1.0000
  O   O8068     1.0  0.9687500000000001  0.24999999999999983  0.875  1.0000
  O   O8069     1.0  0.9687500000000001  0.3125  0.875  1.0000
  O   O8070     1.0  0.9687500000000001  0.37499999999999994  0.875  1.0000
  O   O8071     1.0  0.9687500000000001  0.4374999999999999  0.875  1.0000
  O   O8072     1.0  0.9687500000000001  0.49999999999999983  0.875  1.0000
  O   O8073     1.0  0.9687500000000001  0.5625  0.875  1.0000
  O   O8074     1.0  0.9687500000000001  0.6249999999999998  0.875  1.0000
  O   O8075     1.0  0.9687500000000001  0.6874999999999998  0.875  1.0000
  O   O8076     1.0  0.9687500000000001  0.7499999999999999  0.875  1.0000
  O   O8077     1.0  0.9687500000000001  0.8124999999999998  0.875  1.0000
  O   O8078     1.0  0.9687500000000001  0.8749999999999998  0.875  1.0000
  O   O8079     1.0  0.9687500000000001  0.9374999999999998  0.875  1.0000
  O   O8080     1.0  0.9687500000000001  0.9999999999999999  0.875  1.0000
  O   O8081     1.0  0.0  0.09374999999999999  0.8437499999999999  1.0000
  O   O8082     1.0  0.0  0.15625  0.8437499999999999  1.0000
  O   O8083     1.0  0.0  0.21874999999999994  0.8437499999999999  1.0000
  O   O8084     1.0  0.0  0.28125  0.8437499999999999  1.0000
  O   O8085     1.0  0.0  0.3437499999999999  0.8437499999999999  1.0000
  O   O8086     1.0  0.0  0.4062499999999999  0.8437499999999999  1.0000
  O   O8087     1.0  0.0  0.4687499999999999  0.8437499999999999  1.0000
  O   O8088     1.0  0.0  0.5312499999999999  0.8437499999999999  1.0000
  O   O8089     1.0  0.0  0.59375  0.8437499999999999  1.0000
  O   O8090     1.0  0.0  0.65625  0.8437499999999999  1.0000
  O   O8091     1.0  0.0  0.7187499999999999  0.8437499999999999  1.0000
  O   O8092     1.0  0.0  0.7812499999999999  0.8437499999999999  1.0000
  O   O8093     1.0  0.0  0.8437499999999998  0.8437499999999999  1.0000
  O   O8094     1.0  0.0  0.9062499999999998  0.8437499999999999  1.0000
  O   O8095     1.0  0.0  0.9687499999999998  0.8437499999999999  1.0000
  O   O8096     1.0  0.0  0.031249999999999993  0.8437499999999999  1.0000
  O   O8097     1.0  0.9062500000000001  0.062499999999999986  0.9999999999999999  1.0000
  O   O8098     1.0  0.9062500000000001  0.12499999999999997  0.9999999999999999  1.0000
  O   O8099     1.0  0.9062500000000001  0.18749999999999997  0.9999999999999999  1.0000
  O   O8100     1.0  0.9062500000000001  0.24999999999999983  0.9999999999999999  1.0000
  O   O8101     1.0  0.9062500000000001  0.3124999999999999  0.9999999999999999  1.0000
  O   O8102     1.0  0.9062500000000001  0.37499999999999994  0.9999999999999999  1.0000
  O   O8103     1.0  0.9062500000000001  0.4374999999999999  0.9999999999999999  1.0000
  O   O8104     1.0  0.9062500000000001  0.4999999999999999  0.9999999999999999  1.0000
  O   O8105     1.0  0.9062500000000001  0.5625  0.9999999999999999  1.0000
  O   O8106     1.0  0.9062500000000001  0.625  0.9999999999999999  1.0000
  O   O8107     1.0  0.9062500000000001  0.6874999999999998  0.9999999999999999  1.0000
  O   O8108     1.0  0.9062500000000001  0.7499999999999999  0.9999999999999999  1.0000
  O   O8109     1.0  0.9062500000000001  0.8124999999999998  0.9999999999999999  1.0000
  O   O8110     1.0  0.9062500000000001  0.8749999999999998  0.9999999999999999  1.0000
  O   O8111     1.0  0.9062500000000001  0.9374999999999998  0.9999999999999999  1.0000
  O   O8112     1.0  0.9062500000000001  0.9999999999999999  0.9999999999999999  1.0000
  O   O8113     1.0  0.9375  0.09374999999999999  0.9687499999999999  1.0000
  O   O8114     1.0  0.9375  0.15625  0.9687499999999999  1.0000
  O   O8115     1.0  0.9375  0.21874999999999994  0.9687499999999999  1.0000
  O   O8116     1.0  0.9375  0.28125  0.9687499999999999  1.0000
  O   O8117     1.0  0.9375  0.3437499999999999  0.9687499999999999  1.0000
  O   O8118     1.0  0.9375  0.4062499999999999  0.9687499999999999  1.0000
  O   O8119     1.0  0.9375  0.4687499999999999  0.9687499999999999  1.0000
  O   O8120     1.0  0.9375  0.5312499999999999  0.9687499999999999  1.0000
  O   O8121     1.0  0.9375  0.5937499999999998  0.9687499999999999  1.0000
  O   O8122     1.0  0.9375  0.6562499999999998  0.9687499999999999  1.0000
  O   O8123     1.0  0.9375  0.7187499999999999  0.9687499999999999  1.0000
  O   O8124     1.0  0.9375  0.7812499999999999  0.9687499999999999  1.0000
  O   O8125     1.0  0.9375  0.8437499999999998  0.9687499999999999  1.0000
  O   O8126     1.0  0.9375  0.9062499999999998  0.9687499999999999  1.0000
  O   O8127     1.0  0.9375  0.9687499999999998  0.9687499999999999  1.0000
  O   O8128     1.0  0.9375  0.031249999999999993  0.9687499999999999  1.0000
  O   O8129     1.0  0.9687500000000001  0.062499999999999986  0.9374999999999999  1.0000
  O   O8130     1.0  0.9687500000000001  0.12499999999999997  0.9374999999999999  1.0000
  O   O8131     1.0  0.9687500000000001  0.18749999999999997  0.9374999999999999  1.0000
  O   O8132     1.0  0.9687500000000001  0.24999999999999983  0.9374999999999999  1.0000
  O   O8133     1.0  0.9687500000000001  0.3125  0.9374999999999999  1.0000
  O   O8134     1.0  0.9687500000000001  0.37499999999999994  0.9374999999999999  1.0000
  O   O8135     1.0  0.9687500000000001  0.4374999999999999  0.9374999999999999  1.0000
  O   O8136     1.0  0.9687500000000001  0.49999999999999983  0.9374999999999999  1.0000
  O   O8137     1.0  0.9687500000000001  0.5625  0.9374999999999999  1.0000
  O   O8138     1.0  0.9687500000000001  0.6249999999999998  0.9374999999999999  1.0000
  O   O8139     1.0  0.9687500000000001  0.6874999999999998  0.9374999999999999  1.0000
  O   O8140     1.0  0.9687500000000001  0.7499999999999999  0.9374999999999999  1.0000
  O   O8141     1.0  0.9687500000000001  0.8124999999999998  0.9374999999999999  1.0000
  O   O8142     1.0  0.9687500000000001  0.8749999999999998  0.9374999999999999  1.0000
  O   O8143     1.0  0.9687500000000001  0.9374999999999998  0.9374999999999999  1.0000
  O   O8144     1.0  0.9687500000000001  0.9999999999999999  0.9374999999999999  1.0000
  O   O8145     1.0  0.0  0.09374999999999999  0.9062500000000001  1.0000
  O   O8146     1.0  0.0  0.15625  0.9062500000000001  1.0000
  O   O8147     1.0  0.0  0.21874999999999994  0.9062500000000001  1.0000
  O   O8148     1.0  0.0  0.28125  0.9062500000000001  1.0000
  O   O8149     1.0  0.0  0.3437499999999999  0.9062500000000001  1.0000
  O   O8150     1.0  0.0  0.4062499999999999  0.9062500000000001  1.0000
  O   O8151     1.0  0.0  0.4687499999999999  0.9062500000000001  1.0000
  O   O8152     1.0  0.0  0.5312499999999999  0.9062500000000001  1.0000
  O   O8153     1.0  0.0  0.59375  0.9062500000000001  1.0000
  O   O8154     1.0  0.0  0.65625  0.9062500000000001  1.0000
  O   O8155     1.0  0.0  0.7187499999999999  0.9062500000000001  1.0000
  O   O8156     1.0  0.0  0.7812499999999999  0.9062500000000001  1.0000
  O   O8157     1.0  0.0  0.8437499999999998  0.9062500000000001  1.0000
  O   O8158     1.0  0.0  0.9062499999999998  0.9062500000000001  1.0000
  O   O8159     1.0  0.0  0.9687499999999998  0.9062500000000001  1.0000
  O   O8160     1.0  0.0  0.031249999999999993  0.9062500000000001  1.0000
  O   O8161     1.0  0.9687500000000002  0.062499999999999986  0.9999999999999999  1.0000
  O   O8162     1.0  0.9687500000000002  0.12499999999999997  0.9999999999999999  1.0000
  O   O8163     1.0  0.9687500000000002  0.18749999999999997  0.9999999999999999  1.0000
  O   O8164     1.0  0.9687500000000002  0.24999999999999983  0.9999999999999999  1.0000
  O   O8165     1.0  0.9687500000000002  0.3125  0.9999999999999999  1.0000
  O   O8166     1.0  0.9687500000000002  0.37499999999999994  0.9999999999999999  1.0000
  O   O8167     1.0  0.9687500000000002  0.4374999999999999  0.9999999999999999  1.0000
  O   O8168     1.0  0.9687500000000002  0.49999999999999983  0.9999999999999999  1.0000
  O   O8169     1.0  0.9687500000000002  0.5625  0.9999999999999999  1.0000
  O   O8170     1.0  0.9687500000000002  0.6249999999999998  0.9999999999999999  1.0000
  O   O8171     1.0  0.9687500000000002  0.6874999999999998  0.9999999999999999  1.0000
  O   O8172     1.0  0.9687500000000002  0.7499999999999999  0.9999999999999999  1.0000
  O   O8173     1.0  0.9687500000000002  0.8124999999999998  0.9999999999999999  1.0000
  O   O8174     1.0  0.9687500000000002  0.8749999999999998  0.9999999999999999  1.0000
  O   O8175     1.0  0.9687500000000002  0.9374999999999998  0.9999999999999999  1.0000
  O   O8176     1.0  0.9687500000000002  0.9999999999999999  0.9999999999999999  1.0000
  O   O8177     1.0  0.9999999999999999  0.09374999999999999  0.9687499999999999  1.0000
  O   O8178     1.0  0.9999999999999999  0.15625  0.9687499999999999  1.0000
  O   O8179     1.0  0.9999999999999999  0.21874999999999994  0.9687499999999999  1.0000
  O   O8180     1.0  0.9999999999999999  0.28125  0.9687499999999999  1.0000
  O   O8181     1.0  0.9999999999999999  0.3437499999999999  0.9687499999999999  1.0000
  O   O8182     1.0  0.9999999999999999  0.4062499999999999  0.9687499999999999  1.0000
  O   O8183     1.0  0.9999999999999999  0.4687499999999999  0.9687499999999999  1.0000
  O   O8184     1.0  0.9999999999999999  0.5312499999999999  0.9687499999999999  1.0000
  O   O8185     1.0  0.9999999999999999  0.59375  0.9687499999999999  1.0000
  O   O8186     1.0  0.9999999999999999  0.65625  0.9687499999999999  1.0000
  O   O8187     1.0  0.9999999999999999  0.7187499999999999  0.9687499999999999  1.0000
  O   O8188     1.0  0.9999999999999999  0.7812499999999999  0.9687499999999999  1.0000
  O   O8189     1.0  0.9999999999999999  0.8437499999999998  0.9687499999999999  1.0000
  O   O8190     1.0  0.9999999999999999  0.9062499999999998  0.9687499999999999  1.0000
  O   O8191     1.0  0.9999999999999999  0.9687499999999998  0.9687499999999999  1.0000
  O   O8192     1.0  0.9999999999999999  0.031249999999999993  0.9687499999999999  1.0000
